SandboxData_C2S7_20210305/C2S7N06473/scenario_002/case.raw
0,100.0,33,0,1,60.0
GRID OPTIMIZATION COMPETITION CHALLENGE 2
INPUT DATA FILES ARE RAW JSON CON
1,'23001010300',138.0,1,14,1,1,1.02713299,115.651823,1.1,0.9,1.1,0.9
2,'23001010700',345.0,1,14,1,1,1.03979278,116.790033,1.1,0.9,1.1,0.9
3,'23001010700',138.0,1,14,1,1,1.02914238,115.594777,1.1,0.9,1.1,0.9
4,'23001010800',138.0,1,14,1,1,1.02755225,115.633067,1.1,0.9,1.1,0.9
5,'23001020100',138.0,1,14,1,1,1.02676892,115.676753,1.1,0.9,1.1,0.9
6,'23001020200',138.0,1,14,1,1,1.0269208,115.693187,1.1,0.9,1.1,0.9
7,'23001020300',138.0,1,14,1,1,1.02650714,115.724428,1.1,0.9,1.1,0.9
8,'23001020400',138.0,1,14,1,1,1.0264467,115.680619,1.1,0.9,1.1,0.9
9,'23001020600',138.0,1,14,1,1,1.02455509,115.341364,1.1,0.9,1.1,0.9
10,'23001020800',138.0,1,14,1,1,1.02718222,115.934975,1.1,0.9,1.1,0.9
11,'23001020900',138.0,1,14,1,1,1.02696693,115.785449,1.1,0.9,1.1,0.9
12,'23001030100',138.0,1,14,1,1,1.02368701,115.143589,1.1,0.9,1.1,0.9
13,'23001030200',138.0,1,14,1,1,1.02314341,115.075683,1.1,0.9,1.1,0.9
14,'23001040000',138.0,1,14,1,1,1.02413368,115.077513,1.1,0.9,1.1,0.9
15,'23001042000',138.0,1,14,1,1,1.02836978,116.382708,1.1,0.9,1.1,0.9
16,'23001046000',138.0,1,14,1,1,1.02737248,115.99489,1.1,0.9,1.1,0.9
17,'23003950600',138.0,1,14,1,1,1.04539359,120.42954,1.1,0.9,1.1,0.9
18,'23003950700',138.0,1,14,1,1,1.04964113,121.009601,1.1,0.9,1.1,0.9
19,'23003950900',138.0,1,14,1,1,1.0481379,121.224233,1.1,0.9,1.1,0.9
20,'23003952000',230.0,1,14,1,1,1.04452705,121.861571,1.1,0.9,1.1,0.9
21,'23003952500',138.0,1,14,1,1,1.04134119,119.396119,1.1,0.9,1.1,0.9
22,'23003952700',138.0,1,14,1,1,1.04302669,120.728525,1.1,0.9,1.1,0.9
23,'23005000100',138.0,1,14,1,1,1.02486455,114.920624,1.1,0.9,1.1,0.9
24,'23005001800',138.0,1,14,1,1,1.02547383,114.939175,1.1,0.9,1.1,0.9
25,'23005002102',138.0,1,14,1,1,1.0235945,114.756153,1.1,0.9,1.1,0.9
26,'23005002200',138.0,1,14,1,1,1.02507782,114.898713,1.1,0.9,1.1,0.9
27,'23005002300',345.0,1,14,1,1,1.03677154,116.234097,1.1,0.9,1.1,0.9
28,'23005002300',138.0,1,14,1,1,1.02633357,115.024675,1.1,0.9,1.1,0.9
29,'23005002400',138.0,1,14,1,1,1.02317727,114.866952,1.1,0.9,1.1,0.9
30,'23005002501',345.0,1,14,1,1,1.03795934,116.337711,1.1,0.9,1.1,0.9
31,'23005002600',138.0,1,14,1,1,0.99856085,112.238812,1.1,0.9,1.1,0.9
32,'23005002800',138.0,1,14,1,1,1.00013769,112.412537,1.1,0.9,1.1,0.9
33,'23005002900',138.0,1,14,1,1,1.00168765,112.585512,1.1,0.9,1.1,0.9
34,'23005002900',230.0,1,14,1,1,1.01156974,114.048238,1.1,0.9,1.1,0.9
35,'23005003000',138.0,1,14,1,1,1.00909889,114.134155,1.1,0.9,1.1,0.9
36,'23005003100',138.0,1,14,1,1,1.01297116,114.324225,1.1,0.9,1.1,0.9
37,'23005003400',138.0,1,14,1,1,1.01404738,114.359278,1.1,0.9,1.1,0.9
38,'23005003500',138.0,1,14,1,1,1.0129391,114.318993,1.1,0.9,1.1,0.9
39,'23005003701',138.0,1,14,1,1,1.01631439,114.455304,1.1,0.9,1.1,0.9
40,'23005004001',138.0,1,14,1,1,1.01226747,114.464825,1.1,0.9,1.1,0.9
41,'23005004002',138.0,1,14,1,1,1.01125383,114.262521,1.1,0.9,1.1,0.9
42,'23005004502',138.0,1,14,1,1,1.0253706,115.028677,1.1,0.9,1.1,0.9
43,'23005004701',138.0,1,14,1,1,1.02459455,114.878113,1.1,0.9,1.1,0.9
44,'23005004702',138.0,1,14,1,1,1.02559447,114.998379,1.1,0.9,1.1,0.9
45,'23005004801',138.0,1,14,1,1,1.02325654,114.72345,1.1,0.9,1.1,0.9
46,'23005011100',138.0,1,14,1,1,1.0221808,114.765032,1.1,0.9,1.1,0.9
47,'23005011100',345.0,1,14,1,1,1.03578961,116.406941,1.1,0.9,1.1,0.9
48,'23005011202',138.0,1,14,1,1,1.02102661,114.636461,1.1,0.9,1.1,0.9
49,'23005011500',138.0,1,14,1,1,1.02664065,115.184761,1.1,0.9,1.1,0.9
50,'23005017002',138.0,1,14,1,1,1.00730169,113.81261,1.1,0.9,1.1,0.9
51,'23005017101',138.0,1,14,1,1,1.02404404,114.897511,1.1,0.9,1.1,0.9
52,'23005017102',138.0,1,14,1,1,1.02330148,114.832501,1.1,0.9,1.1,0.9
53,'23005017301',138.0,1,14,1,1,1.00870013,113.817501,1.1,0.9,1.1,0.9
54,'23005017301',230.0,1,14,1,1,1.01222324,114.017823,1.1,0.9,1.1,0.9
55,'23007971400',138.0,1,14,1,1,1.03799033,118.349037,1.1,0.9,1.1,0.9
56,'23009965300',138.0,1,14,1,1,1.02336979,118.757988,1.1,0.9,1.1,0.9
57,'23009965503',138.0,1,14,1,1,1.01511562,117.168384,1.1,0.9,1.1,0.9
58,'23009965504',138.0,1,14,1,1,1.0176084,117.452671,1.1,0.9,1.1,0.9
59,'23009965900',138.0,1,14,1,1,1.00703871,116.904425,1.1,0.9,1.1,0.9
60,'23011010200',138.0,1,14,1,1,1.01525342,115.672245,1.1,0.9,1.1,0.9
61,'23011010600',138.0,1,14,1,1,1.02578974,115.296407,1.1,0.9,1.1,0.9
62,'23011019000',138.0,1,14,1,1,1.02806282,115.532226,1.1,0.9,1.1,0.9
63,'23011021000',138.0,1,14,1,1,1.0275377,116.70359,1.1,0.9,1.1,0.9
64,'23011022000',138.0,1,14,1,1,1.02588987,116.337287,1.1,0.9,1.1,0.9
65,'23011023001',138.0,1,14,1,1,1.02487516,116.074967,1.1,0.9,1.1,0.9
66,'23011023002',138.0,1,14,1,1,1.0246582,115.971763,1.1,0.9,1.1,0.9
67,'23011024101',138.0,1,14,1,1,1.02386725,116.242785,1.1,0.9,1.1,0.9
68,'23011024102',138.0,1,14,1,1,1.02290905,116.131015,1.1,0.9,1.1,0.9
69,'23011024200',138.0,1,14,1,1,1.02194273,116.022142,1.1,0.9,1.1,0.9
70,'23013970200',138.0,1,14,1,1,1.00804853,115.31239,1.1,0.9,1.1,0.9
71,'23013970400',138.0,1,14,1,1,1.00745082,114.772641,1.1,0.9,1.1,0.9
72,'23013970500',138.0,1,14,1,1,1.00671303,115.00637,1.1,0.9,1.1,0.9
73,'23013970700',138.0,1,14,1,1,1.00589132,114.787312,1.1,0.9,1.1,0.9
74,'23015975100',138.0,1,14,1,1,1.02686298,115.38729,1.1,0.9,1.1,0.9
75,'23015975200',138.0,1,14,1,1,1.00958395,114.440974,1.1,0.9,1.1,0.9
76,'23015975300',138.0,1,14,1,1,1.01115906,114.342599,1.1,0.9,1.1,0.9
77,'23015975400',138.0,1,14,1,1,1.01289761,114.300456,1.1,0.9,1.1,0.9
78,'23015975500',138.0,1,14,1,1,1.01466215,114.307696,1.1,0.9,1.1,0.9
79,'23015975600',138.0,1,14,1,1,1.01154804,114.203679,1.1,0.9,1.1,0.9
80,'23015975700',138.0,1,14,1,1,1.01251554,114.165724,1.1,0.9,1.1,0.9
81,'23015975800',138.0,1,14,1,1,1.01345813,114.146866,1.1,0.9,1.1,0.9
82,'23015976200',138.0,1,14,1,1,1.01464593,114.184896,1.1,0.9,1.1,0.9
83,'23017965100',138.0,1,14,1,1,1.03670621,117.227493,1.1,0.9,1.1,0.9
84,'23017965400',138.0,1,14,1,1,1.04271078,118.354542,1.1,0.9,1.1,0.9
85,'23017965500',138.0,1,14,1,1,1.04393256,118.397122,1.1,0.9,1.1,0.9
86,'23017965500',345.0,1,14,1,1,1.0478785,118.389431,1.1,0.9,1.1,0.9
87,'23017965700',138.0,1,14,1,1,1.03512657,117.874831,1.1,0.9,1.1,0.9
88,'23017965800',138.0,1,14,1,1,1.03222811,117.431237,1.1,0.9,1.1,0.9
89,'23017966100',138.0,1,14,1,1,1.02968287,117.066014,1.1,0.9,1.1,0.9
90,'23017966200',138.0,1,14,1,1,1.02795911,116.839607,1.1,0.9,1.1,0.9
91,'23017966500',138.0,1,14,1,1,1.02818108,116.849032,1.1,0.9,1.1,0.9
92,'23019000200',138.0,1,14,1,1,1.02727091,118.510776,1.1,0.9,1.1,0.9
93,'23019000300',138.0,1,14,1,1,1.02753675,118.623256,1.1,0.9,1.1,0.9
94,'23019000400',138.0,1,14,1,1,1.0274204,118.485696,1.1,0.9,1.1,0.9
95,'23019000500',138.0,1,14,1,1,1.02762711,118.473169,1.1,0.9,1.1,0.9
96,'23019000700',345.0,1,14,1,1,1.0375855,120.219457,1.1,0.9,1.1,0.9
97,'23019000700',138.0,1,14,1,1,1.02813292,118.461817,1.1,0.9,1.1,0.9
98,'23019002000',138.0,1,14,1,1,1.02631903,117.984906,1.1,0.9,1.1,0.9
99,'23019005000',138.0,1,14,1,1,1.02881479,118.828694,1.1,0.9,1.1,0.9
100,'23019007200',138.0,1,14,1,1,1.02987814,118.80416,1.1,0.9,1.1,0.9
101,'23019009000',138.0,1,14,1,1,1.02489078,118.349543,1.1,0.9,1.1,0.9
102,'23019010000',138.0,1,14,1,1,1.02696609,117.995165,1.1,0.9,1.1,0.9
103,'23019011000',138.0,1,14,1,1,1.026232,117.444652,1.1,0.9,1.1,0.9
104,'23019012500',138.0,1,14,1,1,1.02618623,116.86425,1.1,0.9,1.1,0.9
105,'23019015000',138.0,1,14,1,1,1.00956988,117.481084,1.1,0.9,1.1,0.9
106,'23019020500',138.0,1,14,1,1,1.0092454,117.337391,1.1,0.9,1.1,0.9
107,'23019027000',138.0,1,14,1,1,1.04140162,120.140815,1.1,0.9,1.1,0.9
108,'23019029000',138.0,1,14,1,1,1.0502367,124.084935,1.1,0.9,1.1,0.9
109,'23019030000',138.0,1,14,1,1,1.04677296,124.01972,1.1,0.9,1.1,0.9
110,'23019031000',138.0,1,14,1,1,1.044052,122.699417,1.1,0.9,1.1,0.9
111,'23019031100',138.0,1,14,1,1,1.02618074,118.476475,1.1,0.9,1.1,0.9
112,'23019031200',138.0,1,14,1,1,1.00916183,117.338019,1.1,0.9,1.1,0.9
113,'23021960302',138.0,1,14,1,1,1.0511359,124.049568,1.1,0.9,1.1,0.9
114,'23021960700',138.0,1,14,1,1,1.01378107,118.47698,1.1,0.9,1.1,0.9
115,'23021960800',138.0,1,14,1,1,1.03458643,122.445266,1.1,0.9,1.1,0.9
116,'23021960900',138.0,1,14,1,1,1.03846574,122.896263,1.1,0.9,1.1,0.9
117,'23023970500',138.0,1,14,1,1,1.01913905,114.535039,1.1,0.9,1.1,0.9
118,'23023970600',138.0,1,14,1,1,1.01888371,114.466328,1.1,0.9,1.1,0.9
119,'23025965700',138.0,1,14,1,1,1.0081737,117.04805,1.1,0.9,1.1,0.9
120,'23025965900',138.0,1,14,1,1,1.00680745,116.611669,1.1,0.9,1.1,0.9
121,'23025966000',138.0,1,14,1,1,1.02431941,116.647651,1.1,0.9,1.1,0.9
122,'23025966500',138.0,1,14,1,1,1.00889194,116.51311,1.1,0.9,1.1,0.9
123,'23025966600',138.0,1,14,1,1,1.00766647,116.472976,1.1,0.9,1.1,0.9
124,'23025966700',138.0,1,14,1,1,1.00749099,116.428825,1.1,0.9,1.1,0.9
125,'23025966800',138.0,1,14,1,1,1.02742767,116.665683,1.1,0.9,1.1,0.9
126,'23025966900',138.0,1,14,1,1,1.00762701,116.413867,1.1,0.9,1.1,0.9
127,'23027042000',345.0,1,14,1,1,1.03310788,118.991594,1.1,0.9,1.1,0.9
128,'23027042000',138.0,1,14,1,1,1.02510536,118.340172,1.1,0.9,1.1,0.9
129,'23027043000',138.0,1,14,1,1,1.01601994,116.895259,1.1,0.9,1.1,0.9
130,'23027044000',138.0,1,14,1,1,1.01150048,116.021787,1.1,0.9,1.1,0.9
131,'23027046001',138.0,1,14,1,1,1.03032422,115.866728,1.1,0.9,1.1,0.9
132,'23027046002',138.0,1,14,1,1,1.02729988,116.392776,1.1,0.9,1.1,0.9
133,'23029955400',138.0,1,14,1,1,1.03180408,115.709538,1.1,0.9,1.1,0.9
134,'23029955800',138.0,1,14,1,1,1.02780974,114.790399,1.1,0.9,1.1,0.9
135,'23029956300',138.0,1,14,1,1,1.02594066,114.554205,1.1,0.9,1.1,0.9
136,'23031005200',138.0,1,14,1,1,1.00544,113.31639,1.1,0.9,1.1,0.9
137,'23031005300',138.0,1,14,1,1,1.00524533,113.238335,1.1,0.9,1.1,0.9
138,'23031020000',138.0,1,14,1,1,1.00953746,113.582706,1.1,0.9,1.1,0.9
139,'23031021000',138.0,1,14,1,1,1.00868702,113.102988,1.1,0.9,1.1,0.9
140,'23031023500',138.0,1,14,1,1,1.00819802,111.719567,1.1,0.9,1.1,0.9
141,'23031024000',138.0,1,14,1,1,1.00782704,112.413009,1.1,0.9,1.1,0.9
142,'23031025100',138.0,1,14,1,1,1.00653911,113.367248,1.1,0.9,1.1,0.9
143,'23031025202',138.0,1,14,1,1,1.00475216,113.159719,1.1,0.9,1.1,0.9
144,'23031025300',138.0,1,14,1,1,1.0054003,113.182334,1.1,0.9,1.1,0.9
145,'23031027000',138.0,1,14,1,1,1.00653565,113.240787,1.1,0.9,1.1,0.9
146,'23031028002',138.0,1,14,1,1,1.00801206,113.344899,1.1,0.9,1.1,0.9
147,'23031030201',138.0,1,14,1,1,1.01681256,113.198993,1.1,0.9,1.1,0.9
148,'23031030202',138.0,1,14,1,1,1.01771235,113.303419,1.1,0.9,1.1,0.9
149,'23031030300',138.0,1,14,1,1,1.02014434,113.587651,1.1,0.9,1.1,0.9
150,'23031034001',138.0,1,14,1,1,1.01115978,113.643139,1.1,0.9,1.1,0.9
151,'23031036001',138.0,1,14,1,1,1.02062488,114.630204,1.1,0.9,1.1,0.9
152,'23031037000',138.0,1,14,1,1,1.03895974,115.751585,1.1,0.9,1.1,0.9
153,'23031038001',138.0,1,14,1,1,1.02499461,115.102225,1.1,0.9,1.1,0.9
154,'25001011002',138.0,1,16,1,1,1.03130829,113.926654,1.1,0.9,1.1,0.9
155,'25001012001',138.0,1,16,1,1,1.0337795,114.191406,1.1,0.9,1.1,0.9
156,'25001012602',138.0,1,16,1,1,1.04014814,114.833389,1.1,0.9,1.1,0.9
157,'25001013400',138.0,1,16,1,1,1.02588093,115.062787,1.1,0.9,1.1,0.9
158,'25001013500',138.0,1,16,1,1,1.02252591,114.816341,1.1,0.9,1.1,0.9
159,'25001013600',138.0,1,16,1,1,1.02062261,114.703861,1.1,0.9,1.1,0.9
160,'25001013700',345.0,1,16,1,1,1.02345788,117.436756,1.1,0.9,1.1,0.9
161,'25001013700',138.0,1,16,1,1,1.01928735,115.624857,1.1,0.9,1.1,0.9
162,'25001013800',138.0,1,16,1,1,1.02509487,115.236302,1.1,0.9,1.1,0.9
163,'25001014100',138.0,1,16,1,1,1.02065682,114.87008,1.1,0.9,1.1,0.9
164,'25001014500',138.0,1,16,1,1,1.01558745,114.05347,1.1,0.9,1.1,0.9
165,'25001014600',138.0,1,16,1,1,1.0150888,113.988071,1.1,0.9,1.1,0.9
166,'25001014700',138.0,1,16,1,1,1.01470482,113.938812,1.1,0.9,1.1,0.9
167,'25001014800',138.0,1,16,1,1,1.01441872,113.903322,1.1,0.9,1.1,0.9
168,'25001014900',138.0,1,16,1,1,1.01033413,113.891936,1.1,0.9,1.1,0.9
169,'25001015100',138.0,1,16,1,1,1.01655757,114.183107,1.1,0.9,1.1,0.9
170,'25001015300',138.0,1,16,1,1,1.04062736,114.887252,1.1,0.9,1.1,0.9
171,'25001015300',345.0,1,16,1,1,1.01325727,116.844032,1.1,0.9,1.1,0.9
172,'25003900100',138.0,1,16,1,1,1.0271554,125.171536,1.1,0.9,1.1,0.9
173,'25003900200',138.0,1,16,1,1,1.0270139,125.153422,1.1,0.9,1.1,0.9
174,'25003900300',138.0,1,16,1,1,1.02694058,125.143983,1.1,0.9,1.1,0.9
175,'25003900800',138.0,1,16,1,1,1.02605152,124.741507,1.1,0.9,1.1,0.9
176,'25003913100',138.0,1,16,1,1,1.02468359,124.06775,1.1,0.9,1.1,0.9
177,'25003914100',138.0,1,16,1,1,0.95665634,115.926192,1.1,0.9,1.1,0.9
178,'25003920101',138.0,1,16,1,1,1.01424456,120.80098,1.1,0.9,1.1,0.9
179,'25003921300',138.0,1,16,1,1,1.01896775,121.352845,1.1,0.9,1.1,0.9
180,'25003921500',138.0,1,16,1,1,1.01599336,121.002579,1.1,0.9,1.1,0.9
181,'25003935300',138.0,1,16,1,1,1.01747775,121.176531,1.1,0.9,1.1,0.9
182,'25005600202',138.0,1,16,1,1,1.01441419,114.146019,1.1,0.9,1.1,0.9
183,'25005610100',138.0,1,16,1,1,1.00789499,113.996417,1.1,0.9,1.1,0.9
184,'25005610202',138.0,1,16,1,1,1.00859416,114.078673,1.1,0.9,1.1,0.9
185,'25005610203',138.0,1,16,1,1,1.01283634,113.762743,1.1,0.9,1.1,0.9
186,'25005610204',138.0,1,16,1,1,1.01213038,113.620641,1.1,0.9,1.1,0.9
187,'25005611101',138.0,1,16,1,1,1.01470387,114.085415,1.1,0.9,1.1,0.9
188,'25005611102',138.0,1,16,1,1,1.01961577,115.261437,1.1,0.9,1.1,0.9
189,'25005611202',138.0,1,16,1,1,1.01016068,114.265513,1.1,0.9,1.1,0.9
190,'25005612100',138.0,1,16,1,1,1.01592708,114.357208,1.1,0.9,1.1,0.9
191,'25005612200',138.0,1,16,1,1,1.01754284,114.769977,1.1,0.9,1.1,0.9
192,'25005613100',345.0,1,16,1,1,1.02541125,115.816089,1.1,0.9,1.1,0.9
193,'25005613100',138.0,1,16,1,1,1.01705253,114.463855,1.1,0.9,1.1,0.9
194,'25005613300',138.0,1,16,1,1,1.02088833,115.406373,1.1,0.9,1.1,0.9
195,'25005613400',138.0,1,16,1,1,1.02178454,115.512487,1.1,0.9,1.1,0.9
196,'25005613700',138.0,1,16,1,1,1.02076423,115.419897,1.1,0.9,1.1,0.9
197,'25005613902',138.0,1,16,1,1,1.02305984,115.666754,1.1,0.9,1.1,0.9
198,'25005617101',138.0,1,16,1,1,1.0173794,115.248268,1.1,0.9,1.1,0.9
199,'25005630102',138.0,1,16,1,1,1.0091567,115.556979,1.1,0.9,1.1,0.9
200,'25005630300',138.0,1,16,1,1,1.00994909,115.649432,1.1,0.9,1.1,0.9
...
0 / END OF BUS DATA BEGIN LOAD DATA
3065,'NJ',1,24,1,74.25,20.092,0.0,0.0,0.0,0.0,1,1,0
3120,'PA',1,24,1,74.25,22.325,0.0,0.0,0.0,0.0,1,1,0
3126,'PA',1,24,1,96.525,20.929,0.0,0.0,0.0,0.0,1,1,0
3365,'HO',1,52,1,74.25,27.225,0.0,0.0,0.0,0.0,1,1,0
10001,'10',1,14,2,6.633,1.824,0.0,0.0,0.0,0.0,1,1,0
10001,'20',1,14,2,6.633,1.824,0.0,0.0,0.0,0.0,1,1,0
10003,'10',1,14,2,30.997,8.524,0.0,0.0,0.0,0.0,1,1,0
10003,'1A',1,14,2,46.134,12.687,0.0,0.0,0.0,0.0,1,1,0
10004,'1A',1,14,2,3.683,1.013,0.0,0.0,0.0,0.0,1,1,0
10005,'10',1,14,2,7.524,2.069,0.0,0.0,0.0,0.0,1,1,0
10005,'20',1,14,2,7.524,2.069,0.0,0.0,0.0,0.0,1,1,0
10006,'1A',1,14,2,8.514,2.341,0.0,0.0,0.0,0.0,1,1,0
10007,'10',1,14,2,9.207,2.532,0.0,0.0,0.0,0.0,1,1,0
10007,'20',1,14,2,9.207,2.532,0.0,0.0,0.0,0.0,1,1,0
10008,'10',1,14,2,4.752,1.307,0.0,0.0,0.0,0.0,1,1,0
10008,'20',1,14,2,4.752,1.307,0.0,0.0,0.0,0.0,1,1,0
10009,'10',1,14,2,6.534,1.797,0.0,0.0,0.0,0.0,1,1,0
10009,'20',1,14,2,6.534,1.797,0.0,0.0,0.0,0.0,1,1,0
10010,'10',1,14,2,16.038,4.41,0.0,0.0,0.0,0.0,1,1,0
10010,'20',1,14,2,16.038,4.41,0.0,0.0,0.0,0.0,1,1,0
10011,'1A',1,14,2,4.792,1.318,0.0,0.0,0.0,0.0,1,1,0
10012,'1A',1,14,2,11.177,3.074,0.0,0.0,0.0,0.0,1,1,0
10013,'10',1,14,2,5.346,1.47,0.0,0.0,0.0,0.0,1,1,0
10013,'20',1,14,2,5.346,1.47,0.0,0.0,0.0,0.0,1,1,0
10014,'1A',1,14,2,3.96,1.089,0.0,0.0,0.0,0.0,1,1,0
10015,'10',1,14,2,5.049,1.388,0.0,0.0,0.0,0.0,1,1,0
10015,'20',1,14,2,5.049,1.388,0.0,0.0,0.0,0.0,1,1,0
10016,'1A',1,14,2,4.257,1.171,0.0,0.0,0.0,0.0,1,1,0
10017,'10',1,14,2,4.455,1.225,0.0,0.0,0.0,0.0,1,1,0
10017,'20',1,14,2,4.455,1.225,0.0,0.0,0.0,0.0,1,1,0
10018,'1A',1,14,2,2.93,0.806,0.0,0.0,0.0,0.0,1,1,0
10019,'10',1,14,2,10.494,2.886,0.0,0.0,0.0,0.0,1,1,0
10019,'20',1,14,2,10.494,2.886,0.0,0.0,0.0,0.0,1,1,0
10020,'10',1,14,2,16.038,4.41,0.0,0.0,0.0,0.0,1,1,0
10020,'20',1,14,2,16.038,4.41,0.0,0.0,0.0,0.0,1,1,0
10021,'10',1,14,2,8.514,2.341,0.0,0.0,0.0,0.0,1,1,0
10021,'20',1,14,2,8.514,2.341,0.0,0.0,0.0,0.0,1,1,0
10022,'10',1,14,2,7.227,1.987,0.0,0.0,0.0,0.0,1,1,0
10022,'20',1,14,2,7.227,1.987,0.0,0.0,0.0,0.0,1,1,0
10023,'10',1,14,2,16.137,4.438,0.0,0.0,0.0,0.0,1,1,0
10023,'20',1,14,2,16.137,4.438,0.0,0.0,0.0,0.0,1,1,0
10024,'10',1,14,2,18.018,4.955,0.0,0.0,0.0,0.0,1,1,0
10024,'20',1,14,2,18.018,4.955,0.0,0.0,0.0,0.0,1,1,0
10025,'10',1,14,2,20.295,5.581,0.0,0.0,0.0,0.0,1,1,0
10025,'20',1,14,2,20.295,5.581,0.0,0.0,0.0,0.0,1,1,0
10026,'1A',1,14,2,10.108,2.78,0.0,0.0,0.0,0.0,1,1,0
10028,'1A',1,14,2,8.197,2.254,0.0,0.0,0.0,0.0,1,1,0
10029,'1A',1,14,2,1.366,0.376,0.0,0.0,0.0,0.0,1,1,0
10030,'1A',1,14,2,5.742,1.579,0.0,0.0,0.0,0.0,1,1,0
10031,'10',1,14,2,12.791,3.517,0.0,0.0,0.0,0.0,1,1,0
10031,'20',1,14,2,12.791,3.517,0.0,0.0,0.0,0.0,1,1,0
10032,'10',1,14,2,10.989,3.022,0.0,0.0,0.0,0.0,1,1,0
10032,'20',1,14,2,10.989,3.022,0.0,0.0,0.0,0.0,1,1,0
10033,'10',1,14,2,11.979,3.294,0.0,0.0,0.0,0.0,1,1,0
10035,'10',1,14,2,3.287,0.904,0.0,0.0,0.0,0.0,1,1,0
10035,'1A',1,14,2,47.193,12.978,0.0,0.0,0.0,0.0,1,1,0
10035,'20',1,14,2,3.287,0.904,0.0,0.0,0.0,0.0,1,1,0
10036,'1A',1,14,2,51.252,14.094,0.0,0.0,0.0,0.0,1,1,0
10037,'10',1,14,2,3.762,1.035,0.0,0.0,0.0,0.0,1,1,0
10037,'20',1,14,2,3.762,1.035,0.0,0.0,0.0,0.0,1,1,0
10038,'10',1,14,2,0.99,0.272,0.0,0.0,0.0,0.0,1,1,0
10038,'20',1,14,2,0.99,0.272,0.0,0.0,0.0,0.0,1,1,0
10039,'10',1,14,2,11.286,3.104,0.0,0.0,0.0,0.0,1,1,0
10039,'20',1,14,2,11.286,3.104,0.0,0.0,0.0,0.0,1,1,0
10040,'1A',1,14,2,6.356,1.748,0.0,0.0,0.0,0.0,1,1,0
10041,'10',1,14,2,10.088,2.774,0.0,0.0,0.0,0.0,1,1,0
10041,'20',1,14,2,10.088,2.774,0.0,0.0,0.0,0.0,1,1,0
10042,'10',1,14,2,7.425,2.042,0.0,0.0,0.0,0.0,1,1,0
10042,'20',1,14,2,7.425,2.042,0.0,0.0,0.0,0.0,1,1,0
10043,'1A',1,14,2,1.99,0.547,0.0,0.0,0.0,0.0,1,1,0
10044,'1A',1,14,2,7.376,2.028,0.0,0.0,0.0,0.0,1,1,0
10045,'10',1,14,2,9.504,2.614,0.0,0.0,0.0,0.0,1,1,0
10045,'20',1,14,2,9.504,2.614,0.0,0.0,0.0,0.0,1,1,0
10046,'10',1,14,2,47.124,12.959,0.0,0.0,0.0,0.0,1,1,0
10048,'10',1,14,2,11.385,3.131,0.0,0.0,0.0,0.0,1,1,0
10048,'20',1,14,2,11.385,3.131,0.0,0.0,0.0,0.0,1,1,0
10049,'10',1,14,2,4.851,1.334,0.0,0.0,0.0,0.0,1,1,0
10049,'20',1,14,2,4.851,1.334,0.0,0.0,0.0,0.0,1,1,0
10050,'10',1,14,2,11.89,3.27,0.0,0.0,0.0,0.0,1,1,0
10050,'20',1,14,2,11.89,3.27,0.0,0.0,0.0,0.0,1,1,0
10051,'1A',1,14,2,2.01,0.553,0.0,0.0,0.0,0.0,1,1,0
10052,'1A',1,14,2,4.297,1.182,0.0,0.0,0.0,0.0,1,1,0
10053,'10',1,14,2,1.257,0.346,0.0,0.0,0.0,0.0,1,1,0
10055,'10',1,14,2,14.058,3.866,0.0,0.0,0.0,0.0,1,1,0
10055,'20',1,14,2,14.058,3.866,0.0,0.0,0.0,0.0,1,1,0
10056,'10',1,14,2,22.869,6.289,0.0,0.0,0.0,0.0,1,1,0
10056,'20',1,14,2,22.869,6.289,0.0,0.0,0.0,0.0,1,1,0
10057,'10',1,14,2,10.791,2.968,0.0,0.0,0.0,0.0,1,1,0
10057,'20',1,14,2,10.791,2.968,0.0,0.0,0.0,0.0,1,1,0
10058,'1A',1,14,2,4.336,1.192,0.0,0.0,0.0,0.0,1,1,0
10059,'10',1,14,2,14.504,3.988,0.0,0.0,0.0,0.0,1,1,0
10059,'20',1,14,2,14.504,3.988,0.0,0.0,0.0,0.0,1,1,0
10060,'10',1,14,2,19.463,5.352,0.0,0.0,0.0,0.0,1,1,0
10060,'20',1,14,2,19.463,5.352,0.0,0.0,0.0,0.0,1,1,0
10061,'10',1,14,2,22.433,6.169,0.0,0.0,0.0,0.0,1,1,0
10061,'20',1,14,2,22.433,6.169,0.0,0.0,0.0,0.0,1,1,0
10062,'1A',1,14,2,2.237,0.615,0.0,0.0,0.0,0.0,1,1,0
10063,'1A',1,14,2,3.465,0.953,0.0,0.0,0.0,0.0,1,1,0
10064,'10',1,14,2,3.247,0.893,0.0,0.0,0.0,0.0,1,1,0
10064,'20',1,14,2,3.247,0.893,0.0,0.0,0.0,0.0,1,1,0
10065,'10',1,14,2,4.148,1.141,0.0,0.0,0.0,0.0,1,1,0
10065,'20',1,14,2,4.148,1.141,0.0,0.0,0.0,0.0,1,1,0
10066,'10',1,14,2,7.841,2.156,0.0,0.0,0.0,0.0,1,1,0
10066,'20',1,14,2,7.841,2.156,0.0,0.0,0.0,0.0,1,1,0
10067,'10',1,14,2,4.594,1.263,0.0,0.0,0.0,0.0,1,1,0
10067,'20',1,14,2,4.594,1.263,0.0,0.0,0.0,0.0,1,1,0
10068,'10',1,14,2,4.415,1.214,0.0,0.0,0.0,0.0,1,1,0
10068,'20',1,14,2,4.415,1.214,0.0,0.0,0.0,0.0,1,1,0
10069,'10',1,14,2,10.543,2.899,0.0,0.0,0.0,0.0,1,1,0
10069,'20',1,14,2,10.543,2.899,0.0,0.0,0.0,0.0,1,1,0
10070,'1A',1,14,2,7.118,1.957,0.0,0.0,0.0,0.0,1,1,0
10071,'10',1,14,2,13.603,3.741,0.0,0.0,0.0,0.0,1,1,0
10071,'20',1,14,2,13.603,3.741,0.0,0.0,0.0,0.0,1,1,0
10072,'1A',1,14,2,6.445,1.772,0.0,0.0,0.0,0.0,1,1,0
10073,'10',1,14,2,14.504,3.988,0.0,0.0,0.0,0.0,1,1,0
10073,'20',1,14,2,14.504,3.988,0.0,0.0,0.0,0.0,1,1,0
10074,'1A',1,14,2,5.168,1.421,0.0,0.0,0.0,0.0,1,1,0
10075,'1A',1,14,2,7.504,2.064,0.0,0.0,0.0,0.0,1,1,0
10076,'1A',1,14,2,3.782,1.04,0.0,0.0,0.0,0.0,1,1,0
10077,'1A',1,14,2,3.643,1.002,0.0,0.0,0.0,0.0,1,1,0
10078,'1A',1,14,2,10.474,2.88,0.0,0.0,0.0,0.0,1,1,0
10079,'1A',1,14,2,4.93,1.356,0.0,0.0,0.0,0.0,1,1,0
10080,'1A',1,14,2,1.683,0.463,0.0,0.0,0.0,0.0,1,1,0
10081,'1A',1,14,2,6.583,1.81,0.0,0.0,0.0,0.0,1,1,0
10082,'1A',1,14,2,8.841,2.431,0.0,0.0,0.0,0.0,1,1,0
10083,'10',1,14,2,8.019,2.205,0.0,0.0,0.0,0.0,1,1,0
10083,'20',1,14,2,8.019,2.205,0.0,0.0,0.0,0.0,1,1,0
10084,'10',1,14,2,5.247,1.443,0.0,0.0,0.0,0.0,1,1,0
10084,'20',1,14,2,5.247,1.443,0.0,0.0,0.0,0.0,1,1,0
10085,'10',1,14,2,40.986,11.271,0.0,0.0,0.0,0.0,1,1,0
10087,'1A',1,14,2,5.485,1.508,0.0,0.0,0.0,0.0,1,1,0
10088,'1A',1,14,2,3.732,1.026,0.0,0.0,0.0,0.0,1,1,0
10089,'1A',1,14,2,1.752,0.482,0.0,0.0,0.0,0.0,1,1,0
10090,'10',1,14,2,9.603,2.641,0.0,0.0,0.0,0.0,1,1,0
10090,'20',1,14,2,9.603,2.641,0.0,0.0,0.0,0.0,1,1,0
10091,'10',1,14,2,19.206,5.282,0.0,0.0,0.0,0.0,1,1,0
10091,'20',1,14,2,19.206,5.282,0.0,0.0,0.0,0.0,1,1,0
10092,'10',1,14,2,9.108,2.505,0.0,0.0,0.0,0.0,1,1,0
10092,'20',1,14,2,9.108,2.505,0.0,0.0,0.0,0.0,1,1,0
10093,'1A',1,14,2,18.691,5.14,0.0,0.0,0.0,0.0,1,1,0
10094,'1A',1,14,2,5.98,1.644,0.0,0.0,0.0,0.0,1,1,0
10095,'1A',1,14,2,4.188,1.152,0.0,0.0,0.0,0.0,1,1,0
10097,'1A',1,14,2,50.272,13.825,0.0,0.0,0.0,0.0,1,1,0
10098,'10',1,14,2,8.316,2.287,0.0,0.0,0.0,0.0,1,1,0
10098,'20',1,14,2,8.316,2.287,0.0,0.0,0.0,0.0,1,1,0
10099,'10',1,14,2,13.464,3.703,0.0,0.0,0.0,0.0,1,1,0
10099,'20',1,14,2,13.464,3.703,0.0,0.0,0.0,0.0,1,1,0
10100,'10',1,14,2,11.88,3.267,0.0,0.0,0.0,0.0,1,1,0
10100,'20',1,14,2,11.88,3.267,0.0,0.0,0.0,0.0,1,1,0
10101,'10',1,14,2,6.831,1.879,0.0,0.0,0.0,0.0,1,1,0
10101,'20',1,14,2,6.831,1.879,0.0,0.0,0.0,0.0,1,1,0
10102,'1A',1,14,2,8.722,2.399,0.0,0.0,0.0,0.0,1,1,0
10103,'10',1,14,2,3.564,0.98,0.0,0.0,0.0,0.0,1,1,0
10103,'20',1,14,2,3.564,0.98,0.0,0.0,0.0,0.0,1,1,0
10104,'1A',1,14,2,8.524,2.344,0.0,0.0,0.0,0.0,1,1,0
10105,'10',1,14,2,6.336,1.742,0.0,0.0,0.0,0.0,1,1,0
10105,'20',1,14,2,6.336,1.742,0.0,0.0,0.0,0.0,1,1,0
10107,'10',1,14,2,10.494,2.886,0.0,0.0,0.0,0.0,1,1,0
10107,'20',1,14,2,10.494,2.886,0.0,0.0,0.0,0.0,1,1,0
10109,'10',1,14,2,9.405,2.586,0.0,0.0,0.0,0.0,1,1,0
10109,'20',1,14,2,9.405,2.586,0.0,0.0,0.0,0.0,1,1,0
10110,'1A',1,14,2,16.365,4.5,0.0,0.0,0.0,0.0,1,1,0
10111,'10',1,14,2,12.87,3.539,0.0,0.0,0.0,0.0,1,1,0
10111,'20',1,14,2,12.87,3.539,0.0,0.0,0.0,0.0,1,1,0
10112,'10',1,14,2,2.376,0.653,0.0,0.0,0.0,0.0,1,1,0
10112,'20',1,14,2,2.376,0.653,0.0,0.0,0.0,0.0,1,1,0
10113,'1A',1,14,2,0.891,0.245,0.0,0.0,0.0,0.0,1,1,0
10114,'10',1,14,2,9.405,2.586,0.0,0.0,0.0,0.0,1,1,0
10114,'20',1,14,2,9.405,2.586,0.0,0.0,0.0,0.0,1,1,0
10115,'10',1,14,2,10.494,2.886,0.0,0.0,0.0,0.0,1,1,0
10115,'20',1,14,2,10.494,2.886,0.0,0.0,0.0,0.0,1,1,0
10116,'1A',1,14,2,1.604,0.441,0.0,0.0,0.0,0.0,1,1,0
10117,'1A',1,14,2,12.563,3.455,0.0,0.0,0.0,0.0,1,1,0
10118,'10',1,14,2,10.296,2.831,0.0,0.0,0.0,0.0,1,1,0
10118,'20',1,14,2,10.296,2.831,0.0,0.0,0.0,0.0,1,1,0
10119,'1A',1,14,2,3.237,0.89,0.0,0.0,0.0,0.0,1,1,0
10120,'10',1,14,2,7.326,2.015,0.0,0.0,0.0,0.0,1,1,0
10120,'20',1,14,2,7.326,2.015,0.0,0.0,0.0,0.0,1,1,0
10121,'10',1,14,2,13.246,3.643,0.0,0.0,0.0,0.0,1,1,0
10121,'20',1,14,2,13.246,3.643,0.0,0.0,0.0,0.0,1,1,0
10122,'10',1,14,2,13.167,3.621,0.0,0.0,0.0,0.0,1,1,0
10122,'20',1,14,2,13.167,3.621,0.0,0.0,0.0,0.0,1,1,0
10123,'1A',1,14,2,5.683,1.563,0.0,0.0,0.0,0.0,1,1,0
10124,'10',1,14,2,2.376,0.653,0.0,0.0,0.0,0.0,1,1,0
10124,'20',1,14,2,2.376,0.653,0.0,0.0,0.0,0.0,1,1,0
10125,'1A',1,14,2,9.464,2.603,0.0,0.0,0.0,0.0,1,1,0
10126,'10',1,14,2,9.702,2.668,0.0,0.0,0.0,0.0,1,1,0
10126,'20',1,14,2,9.702,2.668,0.0,0.0,0.0,0.0,1,1,0
10128,'10',1,14,2,19.473,5.355,0.0,0.0,0.0,0.0,1,1,0
10128,'1A',1,14,2,43.431,11.944,0.0,0.0,0.0,0.0,1,1,0
10129,'10',1,14,2,9.405,2.586,0.0,0.0,0.0,0.0,1,1,0
10129,'20',1,14,2,9.405,2.586,0.0,0.0,0.0,0.0,1,1,0
10130,'1A',1,14,2,5.435,1.495,0.0,0.0,0.0,0.0,1,1,0
10131,'1A',1,14,2,1.931,0.531,0.0,0.0,0.0,0.0,1,1,0
10132,'10',1,14,2,3.515,0.966,0.0,0.0,0.0,0.0,1,1,0
10132,'20',1,14,2,3.515,0.966,0.0,0.0,0.0,0.0,1,1,0
10133,'10',1,14,2,7.425,2.042,0.0,0.0,0.0,0.0,1,1,0
10133,'20',1,14,2,7.425,2.042,0.0,0.0,0.0,0.0,1,1,0
10134,'10',1,14,2,4.95,1.361,0.0,0.0,0.0,0.0,1,1,0
10134,'20',1,14,2,4.95,1.361,0.0,0.0,0.0,0.0,1,1,0
...
0 / END OF LOAD DATA BEGIN FIXED SHUNT DATA
0 / END OF FIXED SHUNT DATA BEGIN GENERATOR DATA
2615,'G3',3.678,65.8,65.8,0.0,1.05,0,100.0,0.0,1.0,0.0,0.0,1.0,1,100.0,188.0,1.0,1,1.0,0,1.0,0,1.0,0,1.0,0,1.0
2616,'G2',3.422,59.5,59.5,0.0,1.05,0,100.0,0.0,1.0,0.0,0.0,1.0,1,100.0,170.0,1.0,1,1.0,0,1.0,0,1.0,0,1.0,0,1.0
2617,'G1',3.422,59.5,59.5,0.0,1.05,0,100.0,0.0,1.0,0.0,0.0,1.0,1,100.0,170.0,1.0,1,1.0,0,1.0,0,1.0,0,1.0,0,1.0
2621,'U1',8.264,11.45,11.45,-6.15,1.05,0,100.0,0.0,1.0,0.0,0.0,1.0,1,100.0,18.5,8.0,1,1.0,0,1.0,0,1.0,0,1.0,0,1.0
2621,'U2',8.264,11.45,11.45,-6.15,1.05,0,100.0,0.0,1.0,0.0,0.0,1.0,1,100.0,18.5,8.0,1,1.0,0,1.0,0,1.0,0,1.0,0,1.0
2934,'U1',67.051,27.6,27.6,-27.6,1.05,0,100.0,0.0,1.0,0.0,0.0,1.0,1,100.0,84.0,40.0,1,1.0,0,1.0,0,1.0,0,1.0,0,1.0
2937,'U1',37.242,24.8,24.8,-13.3,1.05,0,100.0,0.0,1.0,0.0,0.0,1.0,1,100.0,40.0,15.0,1,1.0,0,1.0,0,1.0,0,1.0,0,1.0
2937,'U2',52.139,33.935,34.7,-18.7,1.05,0,100.0,0.0,1.0,0.0,0.0,1.0,1,100.0,56.0,16.0,1,1.0,0,1.0,0,1.0,0,1.0,0,1.0
2938,'U1',39.877,9.881,33.8,-18.2,1.05,0,100.0,0.0,1.0,0.0,0.0,1.0,1,100.0,54.5,38.0,1,1.0,0,1.0,0,1.0,0,1.0,0,1.0
2938,'U2',39.877,9.881,33.8,-18.2,1.05,0,100.0,0.0,1.0,0.0,0.0,1.0,1,100.0,54.5,38.0,1,1.0,0,1.0,0,1.0,0,1.0,0,1.0
2938,'U3',45.678,9.881,33.8,-18.2,1.05,0,100.0,0.0,1.0,0.0,0.0,1.0,1,100.0,54.5,38.0,1,1.0,0,1.0,0,1.0,0,1.0,0,1.0
2940,'U1',22.567,7.384,12.1,-8.3,1.05,0,100.0,0.0,1.0,0.0,0.0,1.0,1,100.0,25.0,9.0,1,1.0,0,1.0,0,1.0,0,1.0,0,1.0
2940,'U2',22.567,7.384,12.1,-8.3,1.05,0,100.0,0.0,1.0,0.0,0.0,1.0,1,100.0,25.0,9.0,1,1.0,0,1.0,0,1.0,0,1.0,0,1.0
2940,'U3',27.08,7.384,14.5,-10.0,1.05,0,100.0,0.0,1.0,0.0,0.0,1.0,1,100.0,30.0,8.0,1,1.0,0,1.0,0,1.0,0,1.0,0,1.0
2943,'G2',230.688,94.132,179.1,-96.3,1.05,0,100.0,0.0,1.0,0.0,0.0,1.0,1,100.0,289.0,150.0,1,1.0,0,1.0,0,1.0,0,1.0,0,1.0
2946,'G1',230.688,94.132,179.1,-96.3,1.05,0,100.0,0.0,1.0,0.0,0.0,1.0,1,100.0,289.0,150.0,1,1.0,0,1.0,0,1.0,0,1.0,0,1.0
2947,'G2',230.688,85.541,179.1,-96.3,1.05,0,100.0,0.0,1.0,0.0,0.0,1.0,1,100.0,289.0,150.0,1,1.0,0,1.0,0,1.0,0,1.0,0,1.0
2948,'G1',230.688,85.541,179.1,-96.3,1.05,0,100.0,0.0,1.0,0.0,0.0,1.0,1,100.0,289.0,150.0,1,1.0,0,1.0,0,1.0,0,1.0,0,1.0
2951,'10',2.211,0.6,0.6,-0.6,1.05,0,100.0,0.0,1.0,0.0,0.0,1.0,1,100.0,2.23,0.87,1,1.0,0,1.0,0,1.0,0,1.0,0,1.0
2951,'11',2.211,0.6,0.6,-0.6,1.05,0,100.0,0.0,1.0,0.0,0.0,1.0,1,100.0,2.23,0.87,1,1.0,0,1.0,0,1.0,0,1.0,0,1.0
2951,'12',2.211,0.6,0.6,-0.6,1.05,0,100.0,0.0,1.0,0.0,0.0,1.0,1,100.0,2.23,0.87,1,1.0,0,1.0,0,1.0,0,1.0,0,1.0
2951,'13',2.211,0.6,0.6,-0.6,1.05,0,100.0,0.0,1.0,0.0,0.0,1.0,1,100.0,2.23,0.87,1,1.0,0,1.0,0,1.0,0,1.0,0,1.0
2951,'U1',2.211,0.6,0.6,-0.6,1.05,0,100.0,0.0,1.0,0.0,0.0,1.0,1,100.0,2.23,0.87,1,1.0,0,1.0,0,1.0,0,1.0,0,1.0
2951,'U2',2.211,0.6,0.6,-0.6,1.05,0,100.0,0.0,1.0,0.0,0.0,1.0,1,100.0,2.23,0.87,1,1.0,0,1.0,0,1.0,0,1.0,0,1.0
2951,'U3',2.211,0.6,0.6,-0.6,1.05,0,100.0,0.0,1.0,0.0,0.0,1.0,1,100.0,2.23,0.87,1,1.0,0,1.0,0,1.0,0,1.0,0,1.0
2951,'U4',2.211,0.6,0.6,-0.6,1.05,0,100.0,0.0,1.0,0.0,0.0,1.0,1,100.0,2.23,0.87,1,1.0,0,1.0,0,1.0,0,1.0,0,1.0
2951,'U5',2.211,0.6,0.6,-0.6,1.05,0,100.0,0.0,1.0,0.0,0.0,1.0,1,100.0,2.23,0.87,1,1.0,0,1.0,0,1.0,0,1.0,0,1.0
2951,'U6',2.211,0.6,0.6,-0.6,1.05,0,100.0,0.0,1.0,0.0,0.0,1.0,1,100.0,2.23,0.87,1,1.0,0,1.0,0,1.0,0,1.0,0,1.0
2951,'U7',2.211,0.6,0.6,-0.6,1.05,0,100.0,0.0,1.0,0.0,0.0,1.0,1,100.0,2.23,0.87,1,1.0,0,1.0,0,1.0,0,1.0,0,1.0
2951,'U8',2.211,0.6,0.6,-0.6,1.05,0,100.0,0.0,1.0,0.0,0.0,1.0,1,100.0,2.23,0.87,1,1.0,0,1.0,0,1.0,0,1.0,0,1.0
2951,'U9',2.211,0.6,0.6,-0.6,1.05,0,100.0,0.0,1.0,0.0,0.0,1.0,1,100.0,2.23,0.87,1,1.0,0,1.0,0,1.0,0,1.0,0,1.0
2953,'G1',282.592,140.293,259.4,-178.5,1.05,0,100.0,0.0,1.0,0.0,0.0,1.0,1,100.0,535.5,150.0,1,1.0,0,1.0,0,1.0,0,1.0,0,1.0
2954,'G2',272.994,139.861,256.5,-114.0,1.05,0,100.0,0.0,1.0,0.0,0.0,1.0,1,100.0,342.0,90.0,1,1.0,0,1.0,0,1.0,0,1.0,0,1.0
2957,'G1',0.0,0.0,105.4,-56.7,1.05,0,100.0,0.0,1.0,0.0,0.0,1.0,0,100.0,170.0,100.0,1,1.0,0,1.0,0,1.0,0,1.0,0,1.0
2957,'G2',0.0,0.0,105.4,-56.7,1.05,0,100.0,0.0,1.0,0.0,0.0,1.0,0,100.0,170.0,100.0,1,1.0,0,1.0,0,1.0,0,1.0,0,1.0
2957,'G3',123.633,110.34,158.0,-85.0,1.05,0,100.0,0.0,1.0,0.0,0.0,1.0,1,100.0,255.0,120.0,1,1.0,0,1.0,0,1.0,0,1.0,0,1.0
2960,'18',41.9,20.3,20.3,-14.0,1.05,0,100.0,0.0,1.0,0.0,0.0,1.0,1,100.0,41.9,18.6,1,1.0,0,1.0,0,1.0,0,1.0,0,1.0
2961,'23',23.8,14.7,14.7,-7.9,1.05,0,100.0,0.0,1.0,0.0,0.0,1.0,1,100.0,23.8,16.9,1,1.0,0,1.0,0,1.0,0,1.0,0,1.0
2962,'22',23.8,14.7,14.7,-7.9,1.05,0,100.0,0.0,1.0,0.0,0.0,1.0,1,100.0,23.8,17.0,1,1.0,0,1.0,0,1.0,0,1.0,0,1.0
2963,'21',23.8,14.7,14.7,-7.9,1.05,0,100.0,0.0,1.0,0.0,0.0,1.0,1,100.0,23.8,17.3,1,1.0,0,1.0,0,1.0,0,1.0,0,1.0
2964,'20',23.8,14.7,14.7,-7.9,1.05,0,100.0,0.0,1.0,0.0,0.0,1.0,1,100.0,23.8,17.6,1,1.0,0,1.0,0,1.0,0,1.0,0,1.0
2965,'19',41.9,20.3,20.3,-14.0,1.05,0,100.0,0.0,1.0,0.0,0.0,1.0,1,100.0,41.9,18.6,1,1.0,0,1.0,0,1.0,0,1.0,0,1.0
2966,'17',41.9,20.3,20.3,-14.0,1.05,0,100.0,0.0,1.0,0.0,0.0,1.0,1,100.0,41.9,18.6,1,1.0,0,1.0,0,1.0,0,1.0,0,1.0
2967,'16',41.9,20.3,20.3,-14.0,1.05,0,100.0,0.0,1.0,0.0,0.0,1.0,1,100.0,41.9,18.6,1,1.0,0,1.0,0,1.0,0,1.0,0,1.0
2968,'15',41.9,20.3,20.3,-14.0,1.05,0,100.0,0.0,1.0,0.0,0.0,1.0,1,100.0,41.9,18.6,1,1.0,0,1.0,0,1.0,0,1.0,0,1.0
2969,'14',41.9,20.3,20.3,-14.0,1.05,0,100.0,0.0,1.0,0.0,0.0,1.0,1,100.0,41.9,18.6,1,1.0,0,1.0,0,1.0,0,1.0,0,1.0
2970,'13',41.9,20.3,20.3,-14.0,1.05,0,100.0,0.0,1.0,0.0,0.0,1.0,1,100.0,41.9,18.6,1,1.0,0,1.0,0,1.0,0,1.0,0,1.0
2971,'G8',41.9,20.3,20.3,-14.0,1.05,0,100.0,0.0,1.0,0.0,0.0,1.0,1,100.0,41.9,18.6,1,1.0,0,1.0,0,1.0,0,1.0,0,1.0
2972,'G7',20.59,12.76,12.76,-6.86,1.05,0,100.0,0.0,1.0,0.0,0.0,1.0,1,100.0,20.59,15.1,1,1.0,0,1.0,0,1.0,0,1.0,0,1.0
2973,'G6',20.59,12.76,12.76,-6.86,1.05,0,100.0,0.0,1.0,0.0,0.0,1.0,1,100.0,20.59,15.1,1,1.0,0,1.0,0,1.0,0,1.0,0,1.0
2974,'G5',20.59,12.76,12.76,-6.86,1.05,0,100.0,0.0,1.0,0.0,0.0,1.0,1,100.0,20.59,15.1,1,1.0,0,1.0,0,1.0,0,1.0,0,1.0
2975,'G4',20.59,12.76,12.76,-6.86,1.05,0,100.0,0.0,1.0,0.0,0.0,1.0,1,100.0,20.59,15.1,1,1.0,0,1.0,0,1.0,0,1.0,0,1.0
2976,'G3',20.59,12.76,12.76,-6.86,1.05,0,100.0,0.0,1.0,0.0,0.0,1.0,1,100.0,20.59,15.1,1,1.0,0,1.0,0,1.0,0,1.0,0,1.0
2977,'G1',20.59,12.76,12.76,-6.86,1.05,0,100.0,0.0,1.0,0.0,0.0,1.0,1,100.0,20.59,15.1,1,1.0,0,1.0,0,1.0,0,1.0,0,1.0
2978,'10',41.9,20.3,20.3,-14.0,1.05,0,100.0,0.0,1.0,0.0,0.0,1.0,1,100.0,41.9,18.6,1,1.0,0,1.0,0,1.0,0,1.0,0,1.0
2979,'11',41.9,20.3,20.3,-14.0,1.05,0,100.0,0.0,1.0,0.0,0.0,1.0,1,100.0,41.9,18.6,1,1.0,0,1.0,0,1.0,0,1.0,0,1.0
2982,'12',41.9,20.3,20.3,-14.0,1.05,0,100.0,0.0,1.0,0.0,0.0,1.0,1,100.0,41.9,18.6,1,1.0,0,1.0,0,1.0,0,1.0,0,1.0
2983,'G9',41.9,20.3,20.3,-14.0,1.05,0,100.0,0.0,1.0,0.0,0.0,1.0,1,100.0,41.9,18.6,1,1.0,0,1.0,0,1.0,0,1.0,0,1.0
2985,'G2',20.59,12.76,12.76,-6.86,1.05,0,100.0,0.0,1.0,0.0,0.0,1.0,1,100.0,20.59,15.1,1,1.0,0,1.0,0,1.0,0,1.0,0,1.0
2986,'G3',228.07,135.45,135.45,0.0,1.05,0,100.0,0.0,1.0,0.0,0.0,1.0,1,100.0,387.0,75.0,1,1.0,0,1.0,0,1.0,0,1.0,0,1.0
2987,'G1',62.564,63.0,63.0,0.0,1.05,0,100.0,0.0,1.0,0.0,0.0,1.0,1,100.0,180.0,60.0,1,1.0,0,1.0,0,1.0,0,1.0,0,1.0
2990,'G2',80.357,131.6,131.6,0.0,1.05,0,100.0,0.0,1.0,0.0,0.0,1.0,1,100.0,376.0,75.0,1,1.0,0,1.0,0,1.0,0,1.0,0,1.0
2992,'G4',80.513,135.45,135.45,0.0,1.05,0,100.0,0.0,1.0,0.0,0.0,1.0,1,100.0,387.0,75.0,1,1.0,0,1.0,0,1.0,0,1.0,0,1.0
2994,'G6',279.315,22.619,185.9,-100.0,1.05,0,100.0,0.0,1.0,0.0,0.0,1.0,1,100.0,300.0,194.0,1,1.0,0,1.0,0,1.0,0,1.0,0,1.0
2995,'G4',279.315,22.619,185.9,-100.0,1.05,0,100.0,0.0,1.0,0.0,0.0,1.0,1,100.0,300.0,194.0,1,1.0,0,1.0,0,1.0,0,1.0,0,1.0
2996,'G3',131.278,18.312,87.4,-47.0,1.05,0,100.0,0.0,1.0,0.0,0.0,1.0,1,100.0,141.0,90.0,1,1.0,0,1.0,0,1.0,0,1.0,0,1.0
2997,'G2',131.278,18.312,87.4,-47.0,1.05,0,100.0,0.0,1.0,0.0,0.0,1.0,1,100.0,141.0,90.0,1,1.0,0,1.0,0,1.0,0,1.0,0,1.0
2998,'G1',131.278,18.312,87.4,-47.0,1.05,0,100.0,0.0,1.0,0.0,0.0,1.0,1,100.0,141.0,90.0,1,1.0,0,1.0,0,1.0,0,1.0,0,1.0
3001,'G5',279.315,22.619,185.9,-100.0,1.05,0,100.0,0.0,1.0,0.0,0.0,1.0,1,100.0,300.0,194.0,1,1.0,0,1.0,0,1.0,0,1.0,0,1.0
3003,'U1',49.743,32.1,32.1,-22.1,1.05,0,100.0,0.0,1.0,0.0,0.0,1.0,1,100.0,66.2,48.8,1,1.0,0,1.0,0,1.0,0,1.0,0,1.0
3003,'U2',34.98,23.1,23.1,-15.9,1.05,0,100.0,0.0,1.0,0.0,0.0,1.0,1,100.0,47.7,34.3,1,1.0,0,1.0,0,1.0,0,1.0,0,1.0
3006,'G2',279.315,35.407,145.3,-100.0,1.05,0,100.0,0.0,1.0,0.0,0.0,1.0,1,100.0,300.0,220.0,1,1.0,0,1.0,0,1.0,0,1.0,0,1.0
3007,'G1',279.315,35.407,145.3,-100.0,1.05,0,100.0,0.0,1.0,0.0,0.0,1.0,1,100.0,300.0,220.0,1,1.0,0,1.0,0,1.0,0,1.0,0,1.0
3010,'G1',102.732,32.3,32.3,-32.3,1.05,0,100.0,0.0,1.0,0.0,0.0,1.0,1,100.0,128.7,85.0,1,1.0,0,1.0,0,1.0,0,1.0,0,1.0
3010,'G2',102.732,32.3,32.3,-32.3,1.05,0,100.0,0.0,1.0,0.0,0.0,1.0,1,100.0,128.7,85.0,1,1.0,0,1.0,0,1.0,0,1.0,0,1.0
3010,'G3',102.732,32.3,32.3,-32.3,1.05,0,100.0,0.0,1.0,0.0,0.0,1.0,1,100.0,128.7,30.0,1,1.0,0,1.0,0,1.0,0,1.0,0,1.0
3013,'U1',10.856,10.2,10.2,-4.53,1.05,0,100.0,0.0,1.0,0.0,0.0,1.0,1,100.0,13.6,4.0,1,1.0,0,1.0,0,1.0,0,1.0,0,1.0
3013,'U2',10.856,10.2,10.2,-4.53,1.05,0,100.0,0.0,1.0,0.0,0.0,1.0,1,100.0,13.6,4.0,1,1.0,0,1.0,0,1.0,0,1.0,0,1.0
3013,'U3',10.856,10.2,10.2,-4.53,1.05,0,100.0,0.0,1.0,0.0,0.0,1.0,1,100.0,13.6,4.0,1,1.0,0,1.0,0,1.0,0,1.0,0,1.0
3015,'U1',9.0,5.158,6.75,-3.0,1.05,0,100.0,0.0,1.0,0.0,0.0,1.0,1,100.0,9.0,3.0,1,1.0,0,1.0,0,1.0,0,1.0,0,1.0
3015,'U2',9.0,5.158,6.75,-3.0,1.05,0,100.0,0.0,1.0,0.0,0.0,1.0,1,100.0,9.0,3.0,1,1.0,0,1.0,0,1.0,0,1.0,0,1.0
3015,'U3',9.0,5.158,6.75,-3.0,1.05,0,100.0,0.0,1.0,0.0,0.0,1.0,1,100.0,9.0,3.0,1,1.0,0,1.0,0,1.0,0,1.0,0,1.0
3015,'U4',9.0,5.158,6.75,-3.0,1.05,0,100.0,0.0,1.0,0.0,0.0,1.0,1,100.0,9.0,3.0,1,1.0,0,1.0,0,1.0,0,1.0,0,1.0
3018,'U1',269.074,70.275,216.8,-96.3,1.05,0,100.0,0.0,1.0,0.0,0.0,1.0,1,100.0,289.0,155.0,1,1.0,0,1.0,0,1.0,0,1.0,0,1.0
3021,'G6',33.7,20.9,20.9,-11.2,1.05,0,100.0,0.0,1.0,0.0,0.0,1.0,1,100.0,33.7,15.0,1,1.0,0,1.0,0,1.0,0,1.0,0,1.0
3022,'G5',29.739,20.9,20.9,-11.2,1.05,0,100.0,0.0,1.0,0.0,0.0,1.0,1,100.0,33.7,15.0,1,1.0,0,1.0,0,1.0,0,1.0,0,1.0
3023,'G4',37.066,37.2,37.2,-20.0,1.05,0,100.0,0.0,1.0,0.0,0.0,1.0,1,100.0,60.0,35.0,1,1.0,0,1.0,0,1.0,0,1.0,0,1.0
3024,'G3',47.894,37.2,37.2,-20.0,1.05,0,100.0,0.0,1.0,0.0,0.0,1.0,1,100.0,60.0,35.0,1,1.0,0,1.0,0,1.0,0,1.0,0,1.0
3025,'G2',80.149,56.7,56.7,-29.95,1.05,0,100.0,0.0,1.0,0.0,0.0,1.0,1,100.0,89.8,37.5,1,1.0,0,1.0,0,1.0,0,1.0,0,1.0
3026,'G1',89.8,56.7,56.7,-29.95,1.05,0,100.0,0.0,1.0,0.0,0.0,1.0,1,100.0,89.8,37.5,1,1.0,0,1.0,0,1.0,0,1.0,0,1.0
3028,'G7',16.045,22.3,22.3,-12.0,1.05,0,100.0,0.0,1.0,0.0,0.0,1.0,1,100.0,36.0,5.0,1,1.0,0,1.0,0,1.0,0,1.0,0,1.0
3030,'G4',64.354,86.71,100.0,-50.0,1.05,0,100.0,0.0,1.0,0.0,0.0,1.0,1,100.0,250.0,1.0,1,1.0,0,1.0,0,1.0,0,1.0,0,1.0
3031,'G3',250.0,90.341,100.0,-50.0,1.05,0,100.0,0.0,1.0,0.0,0.0,1.0,1,100.0,250.0,1.0,1,1.0,0,1.0,0,1.0,0,1.0,0,1.0
3032,'G2',27.273,86.861,100.0,-50.0,1.05,0,100.0,0.0,1.0,0.0,0.0,1.0,1,100.0,250.0,1.0,1,1.0,0,1.0,0,1.0,0,1.0,0,1.0
3033,'G1',111.347,86.939,100.0,-50.0,1.05,0,100.0,0.0,1.0,0.0,0.0,1.0,1,100.0,250.0,1.0,1,1.0,0,1.0,0,1.0,0,1.0,0,1.0
3036,'G2',621.0,284.915,300.8,-207.0,1.05,0,100.0,0.0,1.0,0.0,0.0,1.0,1,100.0,621.0,80.0,1,1.0,0,1.0,0,1.0,0,1.0,0,1.0
3037,'G1',621.0,284.915,300.8,-207.0,1.05,0,100.0,0.0,1.0,0.0,0.0,1.0,1,100.0,621.0,100.0,1,1.0,0,1.0,0,1.0,0,1.0,0,1.0
3041,'G3',155.798,80.819,116.7,-80.3,1.05,0,100.0,0.0,1.0,0.0,0.0,1.0,1,100.0,241.0,100.0,1,1.0,0,1.0,0,1.0,0,1.0,0,1.0
3042,'G2',149.668,80.707,116.7,-80.3,1.05,0,100.0,0.0,1.0,0.0,0.0,1.0,1,100.0,241.0,100.0,1,1.0,0,1.0,0,1.0,0,1.0,0,1.0
3043,'G1',310.212,86.207,230.3,-158.5,1.05,0,100.0,0.0,1.0,0.0,0.0,1.0,1,100.0,475.5,50.0,1,1.0,0,1.0,0,1.0,0,1.0,0,1.0
3044,'G4',372.126,89.766,211.2,-211.2,1.05,0,100.0,0.0,1.0,0.0,0.0,1.0,1,100.0,642.6,350.0,1,1.0,0,1.0,0,1.0,0,1.0,0,1.0
3049,'G3',170.0,88.995,105.4,-56.7,1.05,0,100.0,0.0,1.0,0.0,0.0,1.0,1,100.0,170.0,90.1,1,1.0,0,1.0,0,1.0,0,1.0,0,1.0
3050,'G2',170.0,88.995,105.4,-56.7,1.05,0,100.0,0.0,1.0,0.0,0.0,1.0,1,100.0,170.0,90.1,1,1.0,0,1.0,0,1.0,0,1.0,0,1.0
3051,'G1',180.0,89.231,111.6,-60.0,1.05,0,100.0,0.0,1.0,0.0,0.0,1.0,1,100.0,180.0,95.4,1,1.0,0,1.0,0,1.0,0,1.0,0,1.0
3055,'G2',163.0,89.005,101.0,-54.3,1.05,0,100.0,0.0,1.0,0.0,0.0,1.0,1,100.0,163.0,58.68,1,1.0,0,1.0,0,1.0,0,1.0,0,1.0
3056,'G1',0.0,0.0,247.9,-133.3,1.05,0,100.0,0.0,1.0,0.0,0.0,1.0,0,100.0,400.0,130.0,1,1.0,0,1.0,0,1.0,0,1.0,0,1.0
3060,'U1',40.0,14.0,14.0,0.0,1.05,0,100.0,0.0,1.0,0.0,0.0,1.0,1,100.0,40.0,35.0,1,1.0,0,1.0,0,1.0,0,1.0,0,1.0
3060,'U2',40.0,14.0,14.0,0.0,1.05,0,100.0,0.0,1.0,0.0,0.0,1.0,1,100.0,40.0,35.0,1,1.0,0,1.0,0,1.0,0,1.0,0,1.0
3060,'U3',121.0,42.35,42.35,0.0,1.05,0,100.0,0.0,1.0,0.0,0.0,1.0,1,100.0,121.0,90.0,1,1.0,0,1.0,0,1.0,0,1.0,0,1.0
3060,'U4',121.0,42.35,42.35,0.0,1.05,0,100.0,0.0,1.0,0.0,0.0,1.0,1,100.0,121.0,90.0,1,1.0,0,1.0,0,1.0,0,1.0,0,1.0
3063,'U1',67.036,27.48,44.6,-24.0,1.05,0,100.0,0.0,1.0,0.0,0.0,1.0,1,100.0,72.0,10.0,1,1.0,0,1.0,0,1.0,0,1.0,0,1.0
3063,'U2',173.92,27.48,115.8,-62.3,1.05,0,100.0,0.0,1.0,0.0,0.0,1.0,1,100.0,186.8,110.0,1,1.0,0,1.0,0,1.0,0,1.0,0,1.0
3065,'NJ',0.142,-23.826,9900.0,-9900.0,1.02,0,100.0,0.0,1.0,0.0,0.0,1.0,1,100.0,1000.0,0.0,1,1.0,0,1.0,0,1.0,0,1.0,0,1.0
3066,'U1',8.355,7.184,7.73,-3.43,1.05,0,100.0,0.0,1.0,0.0,0.0,1.0,1,100.0,10.3,8.0,1,1.0,0,1.0,0,1.0,0,1.0,0,1.0
3066,'U2',8.355,7.184,7.73,-3.43,1.05,0,100.0,0.0,1.0,0.0,0.0,1.0,1,100.0,10.3,8.0,1,1.0,0,1.0,0,1.0,0,1.0,0,1.0
3066,'U3',8.355,7.184,7.73,-3.43,1.05,0,100.0,0.0,1.0,0.0,0.0,1.0,1,100.0,10.3,8.0,1,1.0,0,1.0,0,1.0,0,1.0,0,1.0
3066,'U4',8.355,7.184,7.73,-3.43,1.05,0,100.0,0.0,1.0,0.0,0.0,1.0,1,100.0,10.3,8.0,1,1.0,0,1.0,0,1.0,0,1.0,0,1.0
3066,'U5',8.355,7.184,7.73,-3.43,1.05,0,100.0,0.0,1.0,0.0,0.0,1.0,1,100.0,10.3,8.0,1,1.0,0,1.0,0,1.0,0,1.0,0,1.0
3066,'U6',8.355,7.184,7.73,-3.43,1.05,0,100.0,0.0,1.0,0.0,0.0,1.0,1,100.0,10.3,8.0,1,1.0,0,1.0,0,1.0,0,1.0,0,1.0
3069,'U1',82.175,43.151,50.2,-50.2,1.05,0,100.0,0.0,1.0,0.0,0.0,1.0,1,100.0,152.7,80.0,1,1.0,0,1.0,0,1.0,0,1.0,0,1.0
3069,'U2',127.795,43.151,64.5,-64.5,1.05,0,100.0,0.0,1.0,0.0,0.0,1.0,1,100.0,196.2,125.0,1,1.0,0,1.0,0,1.0,0,1.0,0,1.0
3072,'G2',220.142,121.105,240.3,-240.3,1.05,0,100.0,0.0,1.0,0.0,0.0,1.0,1,100.0,585.0,200.0,1,1.0,0,1.0,0,1.0,0,1.0,0,1.0
3073,'G1',571.689,146.213,190.6,-190.6,1.05,0,100.0,0.0,1.0,0.0,0.0,1.0,1,100.0,580.0,170.0,1,1.0,0,1.0,0,1.0,0,1.0,0,1.0
3076,'U1',41.059,10.447,21.4,-14.7,1.05,0,100.0,0.0,1.0,0.0,0.0,1.0,1,100.0,44.1,25.0,1,1.0,0,1.0,0,1.0,0,1.0,0,1.0
3076,'U2',31.749,10.447,16.5,-11.4,1.05,0,100.0,0.0,1.0,0.0,0.0,1.0,1,100.0,34.1,5.0,1,1.0,0,1.0,0,1.0,0,1.0,0,1.0
3078,'U1',25.0,12.1,12.1,-8.3,1.05,0,100.0,0.0,1.0,0.0,0.0,1.0,1,100.0,25.0,10.0,1,1.0,0,1.0,0,1.0,0,1.0,0,1.0
3078,'U2',48.8,26.387,30.2,-16.3,1.05,0,100.0,0.0,1.0,0.0,0.0,1.0,1,100.0,48.8,16.0,1,1.0,0,1.0,0,1.0,0,1.0,0,1.0
3078,'U3',48.8,26.387,30.2,-16.3,1.05,0,100.0,0.0,1.0,0.0,0.0,1.0,1,100.0,48.8,16.0,1,1.0,0,1.0,0,1.0,0,1.0,0,1.0
3080,'U1',47.0,22.8,22.8,-15.7,1.05,0,100.0,0.0,1.0,0.0,0.0,1.0,1,100.0,47.0,40.0,1,1.0,0,1.0,0,1.0,0,1.0,0,1.0
3080,'U2',12.236,12.1,12.1,-8.3,1.05,0,100.0,0.0,1.0,0.0,0.0,1.0,1,100.0,25.0,10.0,1,1.0,0,1.0,0,1.0,0,1.0,0,1.0
3082,'U1',0.0,0.0,94.3,-55.7,1.05,0,100.0,0.0,1.0,0.0,0.0,1.0,0,100.0,167.2,50.0,1,1.0,0,1.0,0,1.0,0,1.0,0,1.0
3082,'U2',0.0,0.0,96.2,-51.8,1.05,0,100.0,0.0,1.0,0.0,0.0,1.0,0,100.0,155.3,50.0,1,1.0,0,1.0,0,1.0,0,1.0,0,1.0
3084,'U1',65.5,31.7,31.7,-21.8,1.05,0,100.0,0.0,1.0,0.0,0.0,1.0,1,100.0,65.5,45.0,1,1.0,0,1.0,0,1.0,0,1.0,0,1.0
3084,'U2',37.2,18.0,18.0,-12.4,1.05,0,100.0,0.0,1.0,0.0,0.0,1.0,1,100.0,37.2,25.0,1,1.0,0,1.0,0,1.0,0,1.0,0,1.0
3086,'U1',14.078,6.9,6.9,-4.75,1.05,0,100.0,0.0,1.0,0.0,0.0,1.0,1,100.0,14.2,0.2,1,1.0,0,1.0,0,1.0,0,1.0,0,1.0
3086,'U2',14.078,6.9,6.9,-4.75,1.05,0,100.0,0.0,1.0,0.0,0.0,1.0,1,100.0,14.2,0.2,1,1.0,0,1.0,0,1.0,0,1.0,0,1.0
3089,'G1',13.579,108.387,309.05,0.0,1.05,0,100.0,0.0,1.0,0.0,0.0,1.0,1,100.0,883.0,1.0,1,1.0,0,1.0,0,1.0,0,1.0,0,1.0
3094,'U1',75.832,31.013,46.0,-31.7,1.05,0,100.0,0.0,1.0,0.0,0.0,1.0,1,100.0,95.0,70.0,1,1.0,0,1.0,0,1.0,0,1.0,0,1.0
3094,'U2',18.359,11.1,11.1,-7.7,1.05,0,100.0,0.0,1.0,0.0,0.0,1.0,1,100.0,23.0,3.0,1,1.0,0,1.0,0,1.0,0,1.0,0,1.0
3094,'U3',23.974,17.5,17.5,-9.4,1.05,0,100.0,0.0,1.0,0.0,0.0,1.0,1,100.0,28.3,23.0,1,1.0,0,1.0,0,1.0,0,1.0,0,1.0
3095,'U1',12.0,38.6,38.6,-38.6,1.05,0,100.0,0.0,1.0,0.0,0.0,1.0,1,100.0,12.0,0.0,1,1.0,0,1.0,0,1.0,0,1.0,1,1.0
3098,'U1',20.0,10.935,12.4,-6.7,1.05,0,100.0,0.0,1.0,0.0,0.0,1.0,1,100.0,20.0,19.6,1,1.0,0,1.0,0,1.0,0,1.0,0,1.0
3098,'U2',20.0,10.935,12.4,-6.7,1.05,0,100.0,0.0,1.0,0.0,0.0,1.0,1,100.0,20.0,19.1,1,1.0,0,1.0,0,1.0,0,1.0,0,1.0
3098,'U3',25.0,10.935,15.5,-8.3,1.05,0,100.0,0.0,1.0,0.0,0.0,1.0,1,100.0,25.0,19.1,1,1.0,0,1.0,0,1.0,0,1.0,0,1.0
3098,'U4',25.0,10.935,15.5,-8.3,1.05,0,100.0,0.0,1.0,0.0,0.0,1.0,1,100.0,25.0,19.1,1,1.0,0,1.0,0,1.0,0,1.0,0,1.0
3098,'U5',25.0,10.935,15.5,-8.3,1.05,0,100.0,0.0,1.0,0.0,0.0,1.0,1,100.0,25.0,18.7,1,1.0,0,1.0,0,1.0,0,1.0,0,1.0
3103,'U1',25.0,12.1,12.1,-8.3,1.05,0,100.0,0.0,1.0,0.0,0.0,1.0,1,100.0,25.0,3.0,1,1.0,0,1.0,0,1.0,0,1.0,0,1.0
3103,'U2',25.0,12.1,12.1,-8.3,1.05,0,100.0,0.0,1.0,0.0,0.0,1.0,1,100.0,25.0,3.0,1,1.0,0,1.0,0,1.0,0,1.0,0,1.0
3105,'U1',41.897,21.8,21.8,-15.0,1.05,0,100.0,0.0,1.0,0.0,0.0,1.0,1,100.0,45.0,22.0,1,1.0,0,1.0,0,1.0,0,1.0,0,1.0
3105,'U2',41.897,26.996,33.8,-15.0,1.05,0,100.0,0.0,1.0,0.0,0.0,1.0,1,100.0,45.0,22.0,1,1.0,0,1.0,0,1.0,0,1.0,0,1.0
3107,'G4',73.5,45.6,45.6,-24.5,1.05,0,100.0,0.0,1.0,0.0,0.0,1.0,1,100.0,73.5,20.0,1,1.0,0,1.0,0,1.0,0,1.0,0,1.0
3108,'G3',72.0,44.6,44.6,-24.0,1.05,0,100.0,0.0,1.0,0.0,0.0,1.0,1,100.0,72.0,20.0,1,1.0,0,1.0,0,1.0,0,1.0,0,1.0
3109,'G2',239.4,63.618,148.4,-79.8,1.05,0,100.0,0.0,1.0,0.0,0.0,1.0,1,100.0,239.4,60.0,1,1.0,0,1.0,0,1.0,0,1.0,0,1.0
3110,'G1',147.1,61.127,91.2,-49.0,1.05,0,100.0,0.0,1.0,0.0,0.0,1.0,1,100.0,147.1,40.0,1,1.0,0,1.0,0,1.0,0,1.0,0,1.0
3115,'U1',51.0,12.46,31.6,-17.0,1.05,0,100.0,0.0,1.0,0.0,0.0,1.0,1,100.0,51.0,16.0,1,1.0,0,1.0,0,1.0,0,1.0,0,1.0
3115,'U2',24.485,12.46,31.6,-17.0,1.05,0,100.0,0.0,1.0,0.0,0.0,1.0,1,100.0,51.0,16.0,1,1.0,0,1.0,0,1.0,0,1.0,0,1.0
3115,'U3',24.485,12.46,31.6,-17.0,1.05,0,100.0,0.0,1.0,0.0,0.0,1.0,1,100.0,51.0,16.0,1,1.0,0,1.0,0,1.0,0,1.0,0,1.0
3115,'U4',18.605,12.46,31.6,-17.0,1.05,0,100.0,0.0,1.0,0.0,0.0,1.0,1,100.0,51.0,16.0,1,1.0,0,1.0,0,1.0,0,1.0,0,1.0
3117,'U1',159.646,60.922,123.9,-66.7,1.05,0,100.0,0.0,1.0,0.0,0.0,1.0,1,100.0,200.0,108.0,1,1.0,0,1.0,0,1.0,0,1.0,0,1.0
3120,'PA',100.0,61.91,9900.0,-9900.0,1.02,0,100.0,0.0,1.0,0.0,0.0,1.0,1,100.0,100.0,0.0,1,1.0,0,1.0,0,1.0,0,1.0,0,1.0
3121,'U1',217.6,134.9,134.9,-72.5,1.05,0,100.0,0.0,1.0,0.0,0.0,1.0,1,100.0,217.6,85.0,1,1.0,0,1.0,0,1.0,0,1.0,0,1.0
3121,'U2',0.0,0.0,134.9,-72.5,1.05,0,100.0,0.0,1.0,0.0,0.0,1.0,0,100.0,217.6,85.0,1,1.0,0,1.0,0,1.0,0,1.0,0,1.0
3121,'U3',0.0,0.0,72.0,-32.0,1.05,0,100.0,0.0,1.0,0.0,0.0,1.0,0,100.0,96.0,35.0,1,1.0,0,1.0,0,1.0,0,1.0,0,1.0
3121,'U4',0.0,0.0,72.0,-32.0,1.05,0,100.0,0.0,1.0,0.0,0.0,1.0,0,100.0,96.0,35.0,1,1.0,0,1.0,0,1.0,0,1.0,0,1.0
3123,'10',0.0,0.0,15.32,-8.64,1.05,0,100.0,0.0,1.0,0.0,0.0,1.0,0,100.0,25.93,18.49,1,1.0,0,1.0,0,1.0,0,1.0,0,1.0
3123,'11',0.0,0.0,15.32,-8.64,1.05,0,100.0,0.0,1.0,0.0,0.0,1.0,0,100.0,25.93,18.49,1,1.0,0,1.0,0,1.0,0,1.0,0,1.0
3123,'12',0.0,0.0,15.32,-8.64,1.05,0,100.0,0.0,1.0,0.0,0.0,1.0,0,100.0,25.93,18.49,1,1.0,0,1.0,0,1.0,0,1.0,0,1.0
3123,'13',0.0,0.0,15.32,-8.64,1.05,0,100.0,0.0,1.0,0.0,0.0,1.0,0,100.0,25.93,18.49,1,1.0,0,1.0,0,1.0,0,1.0,0,1.0
3123,'14',0.0,0.0,15.32,-8.64,1.05,0,100.0,0.0,1.0,0.0,0.0,1.0,0,100.0,25.93,18.49,1,1.0,0,1.0,0,1.0,0,1.0,0,1.0
3123,'G1',188.0,72.287,116.5,-62.7,1.05,0,100.0,0.0,1.0,0.0,0.0,1.0,1,100.0,188.0,15.0,1,1.0,0,1.0,0,1.0,0,1.0,0,1.0
3123,'G2',188.0,72.287,116.5,-62.7,1.05,0,100.0,0.0,1.0,0.0,0.0,1.0,1,100.0,188.0,15.0,1,1.0,0,1.0,0,1.0,0,1.0,0,1.0
3123,'G3',0.0,0.0,15.32,-8.64,1.05,0,100.0,0.0,1.0,0.0,0.0,1.0,0,100.0,25.93,18.49,1,1.0,0,1.0,0,1.0,0,1.0,0,1.0
3123,'G4',0.0,0.0,15.32,-8.64,1.05,0,100.0,0.0,1.0,0.0,0.0,1.0,0,100.0,25.93,18.49,1,1.0,0,1.0,0,1.0,0,1.0,0,1.0
3123,'G5',0.0,0.0,15.32,-8.64,1.05,0,100.0,0.0,1.0,0.0,0.0,1.0,0,100.0,25.93,18.49,1,1.0,0,1.0,0,1.0,0,1.0,0,1.0
3123,'G6',0.0,0.0,15.32,-8.64,1.05,0,100.0,0.0,1.0,0.0,0.0,1.0,0,100.0,25.93,18.49,1,1.0,0,1.0,0,1.0,0,1.0,0,1.0
3123,'G7',0.0,0.0,15.32,-8.64,1.05,0,100.0,0.0,1.0,0.0,0.0,1.0,0,100.0,25.93,18.49,1,1.0,0,1.0,0,1.0,0,1.0,0,1.0
3123,'G8',0.0,0.0,15.32,-8.64,1.05,0,100.0,0.0,1.0,0.0,0.0,1.0,0,100.0,25.93,18.49,1,1.0,0,1.0,0,1.0,0,1.0,0,1.0
3123,'G9',0.0,0.0,15.32,-8.64,1.05,0,100.0,0.0,1.0,0.0,0.0,1.0,0,100.0,25.93,18.49,1,1.0,0,1.0,0,1.0,0,1.0,0,1.0
3126,'PA',6.627,128.237,9900.0,-9900.0,1.03,0,100.0,0.0,1.0,0.0,0.0,1.0,1,100.0,100.0,0.0,1,1.0,0,1.0,0,1.0,0,1.0,0,1.0
3130,'U1',200.0,70.191,150.0,-66.7,1.05,0,100.0,0.0,1.0,0.0,0.0,1.0,1,100.0,200.0,65.0,1,1.0,0,1.0,0,1.0,0,1.0,0,1.0
3130,'U2',128.623,70.191,117.2,-52.1,1.05,0,100.0,0.0,1.0,0.0,0.0,1.0,1,100.0,156.2,45.0,1,1.0,0,1.0,0,1.0,0,1.0,0,1.0
3130,'U3',0.0,0.0,111.6,-60.0,1.05,0,100.0,0.0,1.0,0.0,0.0,1.0,0,100.0,180.0,110.0,1,1.0,0,1.0,0,1.0,0,1.0,0,1.0
3130,'U4',0.0,0.0,111.6,-60.0,1.05,0,100.0,0.0,1.0,0.0,0.0,1.0,0,100.0,180.0,110.0,1,1.0,0,1.0,0,1.0,0,1.0,0,1.0
3134,'G3',139.213,42.485,183.3,-98.6,1.05,0,100.0,0.0,1.0,0.0,0.0,1.0,1,100.0,295.7,135.0,1,1.0,0,1.0,0,1.0,0,1.0,0,1.0
3135,'G2',118.697,42.212,110.9,-59.7,1.05,0,100.0,0.0,1.0,0.0,0.0,1.0,1,100.0,179.0,90.0,1,1.0,0,1.0,0,1.0,0,1.0,0,1.0
3136,'G1',179.0,43.266,110.9,-59.7,1.05,0,100.0,0.0,1.0,0.0,0.0,1.0,1,100.0,179.0,90.0,1,1.0,0,1.0,0,1.0,0,1.0,0,1.0
3139,'U1',68.192,22.326,70.4,-37.9,1.05,0,100.0,0.0,1.0,0.0,0.0,1.0,1,100.0,113.6,30.0,1,1.0,0,1.0,0,1.0,0,1.0,0,1.0
3139,'U2',55.863,22.326,37.2,-20.0,1.05,0,100.0,0.0,1.0,0.0,0.0,1.0,1,100.0,60.0,25.0,1,1.0,0,1.0,0,1.0,0,1.0,0,1.0
3139,'U3',55.863,22.326,37.2,-20.0,1.05,0,100.0,0.0,1.0,0.0,0.0,1.0,1,100.0,60.0,25.0,1,1.0,0,1.0,0,1.0,0,1.0,0,1.0
3141,'G2',111.391,115.0,115.0,-61.9,1.05,0,100.0,0.0,1.0,0.0,0.0,1.0,1,100.0,185.6,105.0,1,1.0,0,1.0,0,1.0,0,1.0,0,1.0
3142,'G1',78.067,113.5,113.5,-78.1,1.05,0,100.0,0.0,1.0,0.0,0.0,1.0,1,100.0,234.3,70.0,1,1.0,0,1.0,0,1.0,0,1.0,0,1.0
3143,'G3',111.391,115.0,115.0,-61.9,1.05,0,100.0,0.0,1.0,0.0,0.0,1.0,1,100.0,185.6,105.0,1,1.0,0,1.0,0,1.0,0,1.0,0,1.0
3146,'U1',35.92,17.773,27.9,-15.0,1.05,0,100.0,0.0,1.0,0.0,0.0,1.0,1,100.0,45.0,20.0,1,1.0,0,1.0,0,1.0,0,1.0,0,1.0
3146,'U2',35.92,17.773,27.9,-15.0,1.05,0,100.0,0.0,1.0,0.0,0.0,1.0,1,100.0,45.0,20.0,1,1.0,0,1.0,0,1.0,0,1.0,0,1.0
3146,'U3',35.92,17.773,27.9,-15.0,1.05,0,100.0,0.0,1.0,0.0,0.0,1.0,1,100.0,45.0,20.0,1,1.0,0,1.0,0,1.0,0,1.0,0,1.0
3148,'U1',24.985,10.95,10.95,0.0,1.05,0,100.0,0.0,1.0,0.0,0.0,1.0,1,100.0,31.3,6.0,1,1.0,0,1.0,0,1.0,0,1.0,0,1.0
3151,'U1',24.0,18.0,18.0,-8.0,1.05,0,100.0,0.0,1.0,0.0,0.0,1.0,1,100.0,24.0,1.0,1,1.0,0,1.0,0,1.0,0,1.0,0,1.0
3153,'G2',149.593,103.157,172.7,-92.9,1.05,0,100.0,0.0,1.0,0.0,0.0,1.0,1,100.0,278.6,140.0,1,1.0,0,1.0,0,1.0,0,1.0,0,1.0
3154,'G1',149.593,103.157,172.7,-92.9,1.05,0,100.0,0.0,1.0,0.0,0.0,1.0,1,100.0,278.6,140.0,1,1.0,0,1.0,0,1.0,0,1.0,0,1.0
3155,'G3',85.846,102.427,195.2,-105.0,1.05,0,100.0,0.0,1.0,0.0,0.0,1.0,1,100.0,315.0,75.0,1,1.0,0,1.0,0,1.0,0,1.0,0,1.0
...
0 / END OF GENERATOR DATA BEGIN BRANCH DATA
1,4,'L1',0.000512,0.00384,0.00101,159.0,166.9,174.9,0.0,0.0,0.0,0.0,1,1,0.96,1,1.0,0,1.0,0,1.0,0,1.0
2,86,'L1',0.00126,0.02205,0.2362,1046.0,1098.3,1150.6,0.0,0.0,0.0,0.0,1,1,35.01,1,1.0,0,1.0,0,1.0,0,1.0
3,4,'L1',0.00173733,0.01303,0.00334,175.0,183.7,192.5,0.0,0.0,0.0,0.0,1,1,3.22,1,1.0,0,1.0,0,1.0,0,1.0
3,49,'L1',0.00418667,0.0314,0.00983,142.0,149.1,156.2,0.0,0.0,0.0,0.0,1,1,8.49,1,1.0,0,1.0,0,1.0,0,1.0
5,8,'L1',0.000353333,0.00265,0.0006,142.0,149.1,156.2,0.0,0.0,0.0,0.0,1,1,0.61,1,1.0,0,1.0,0,1.0,0,1.0
6,11,'L1',0.00147733,0.01108,0.0025,142.0,149.1,156.2,0.0,0.0,0.0,0.0,1,1,2.55,1,1.0,0,1.0,0,1.0,0,1.0
7,8,'L1',0.000414667,0.00311,0.00078,243.0,243.0,243.0,0.0,0.0,0.0,0.0,1,1,0.76,1,1.0,0,1.0,0,1.0,0,1.0
7,8,'L2',0.000414667,0.00311,0.00078,243.0,243.0,243.0,0.0,0.0,0.0,0.0,1,1,0.76,1,1.0,0,1.0,0,1.0,0,1.0
7,10,'L1',0.00148667,0.01115,0.00272,243.0,243.0,243.0,0.0,0.0,0.0,0.0,1,1,2.69,1,1.0,0,1.0,0,1.0,0,1.0
7,10,'L2',0.00148667,0.01115,0.00272,243.0,243.0,243.0,0.0,0.0,0.0,0.0,1,1,2.69,1,1.0,0,1.0,0,1.0,0,1.0
8,9,'L1',0.00207733,0.01558,0.00351,159.0,166.9,174.9,0.0,0.0,0.0,0.0,1,1,3.6,1,1.0,0,1.0,0,1.0,0,1.0
9,12,'L1',0.00176267,0.01322,0.00329,142.0,149.1,156.2,0.0,0.0,0.0,0.0,1,1,3.2,1,1.0,0,1.0,0,1.0,0,1.0
11,16,'L1',0.00257333,0.0193,0.00414,142.0,149.1,156.2,0.0,0.0,0.0,0.0,1,1,4.34,1,1.0,0,1.0,0,1.0,0,1.0
12,13,'L1',0.00160933,0.01207,0.00273,118.0,123.9,129.8,0.0,0.0,0.0,0.0,1,1,2.81,1,1.0,0,1.0,0,1.0,0,1.0
12,14,'L1',0.00255867,0.01919,0.00432,128.0,134.4,140.8,0.0,0.0,0.0,0.0,1,1,4.42,1,1.0,0,1.0,0,1.0,0,1.0
14,42,'L1',0.00496533,0.03724,0.00816,128.0,134.4,140.8,0.0,0.0,0.0,0.0,1,1,8.46,1,1.0,0,1.0,0,1.0,0,1.0
15,16,'L1',0.00394667,0.0296,0.00746,159.0,166.9,174.9,0.0,0.0,0.0,0.0,1,1,7.23,1,1.0,0,1.0,0,1.0,0,1.0
17,19,'L1',0.0228613,0.17146,0.04168,118.0,123.9,129.8,0.0,0.0,0.0,0.0,1,1,41.16,1,1.0,0,1.0,0,1.0,0,1.0
21,22,'L1',0.0164293,0.12322,0.0154,144.0,144.0,144.0,0.0,0.0,0.0,0.0,1,1,22.0,1,1.0,0,1.0,0,1.0,0,1.0
22,110,'L1',0.0172347,0.12926,0.03121,128.0,134.4,140.8,0.0,0.0,0.0,0.0,1,1,30.83,1,1.0,0,1.0,0,1.0,0,1.0
23,28,'L1',0.000658667,0.00494,0.00134,205.0,215.2,225.5,0.0,0.0,0.0,0.0,1,1,1.25,1,1.0,0,1.0,0,1.0,0,1.0
23,29,'L1',0.00166133,0.01246,0.00339,205.0,215.2,225.5,0.0,0.0,0.0,0.0,1,1,3.17,1,1.0,0,1.0,0,1.0,0,1.0
24,28,'L1',0.000610667,0.00458,0.00107,118.0,123.9,129.8,0.0,0.0,0.0,0.0,1,1,1.08,1,1.0,0,1.0,0,1.0,0,1.0
25,26,'L1',0.000902667,0.00677,0.00174,128.0,134.4,140.8,0.0,0.0,0.0,0.0,1,1,1.67,1,1.0,0,1.0,0,1.0,0,1.0
26,28,'L1',0.000638667,0.00479,0.00115,142.0,149.1,156.2,0.0,0.0,0.0,0.0,1,1,1.14,1,1.0,0,1.0,0,1.0,0,1.0
27,30,'L1',0.00011,0.0019,0.01955,1046.0,1098.3,1150.6,0.0,0.0,0.0,0.0,1,1,2.96,1,1.0,0,1.0,0,1.0,0,1.0
29,39,'L1',0.00221867,0.01664,0.0038,175.0,183.7,192.5,0.0,0.0,0.0,0.0,1,1,3.89,1,1.0,0,1.0,0,1.0,0,1.0
31,32,'L1',0.001652,0.01239,0.00283,175.0,183.7,192.5,0.0,0.0,0.0,0.0,1,1,2.89,1,1.0,0,1.0,0,1.0,0,1.0
32,33,'L1',0.000886667,0.00665,0.0016,219.0,229.9,240.9,0.0,0.0,0.0,0.0,1,1,1.59,1,1.0,0,1.0,0,1.0,0,1.0
35,53,'L1',0.00245067,0.01838,0.00435,159.0,166.9,174.9,0.0,0.0,0.0,0.0,1,1,4.36,1,1.0,0,1.0,0,1.0,0,1.0
36,37,'L1',0.000522667,0.00392,0.00099,159.0,166.9,174.9,0.0,0.0,0.0,0.0,1,1,0.96,1,1.0,0,1.0,0,1.0,0,1.0
37,39,'L1',0.000989333,0.00742,0.00187,159.0,166.9,174.9,0.0,0.0,0.0,0.0,1,1,1.82,1,1.0,0,1.0,0,1.0,0,1.0
38,36,'L1',0.00130667,0.0098,0.00123,144.0,144.0,144.0,0.0,0.0,0.0,0.0,1,1,1.77,1,1.0,0,1.0,0,1.0,0,1.0
40,41,'L1',0.001028,0.00771,0.00192,142.0,149.1,156.2,0.0,0.0,0.0,0.0,1,1,1.87,1,1.0,0,1.0,0,1.0,0,1.0
41,50,'L1',0.00468133,0.03511,0.00904,128.0,134.4,140.8,0.0,0.0,0.0,0.0,1,1,8.63,1,1.0,0,1.0,0,1.0,0,1.0
41,138,'L1',0.00276133,0.02071,0.00485,118.0,123.9,129.8,0.0,0.0,0.0,0.0,1,1,4.89,1,1.0,0,1.0,0,1.0,0,1.0
42,51,'L1',0.00243,0.02018,0.00789,284.0,298.2,312.4,0.0,0.0,0.0,0.0,1,1,6.11,1,1.0,0,1.0,0,1.0,0,1.0
43,44,'L1',0.00145733,0.01093,0.00256,118.0,123.9,129.8,0.0,0.0,0.0,0.0,1,1,2.58,1,1.0,0,1.0,0,1.0,0,1.0
43,45,'L1',0.00207067,0.01553,0.00364,118.0,123.9,129.8,0.0,0.0,0.0,0.0,1,1,3.67,1,1.0,0,1.0,0,1.0,0,1.0
44,49,'L1',0.003116,0.02337,0.0053,118.0,123.9,129.8,0.0,0.0,0.0,0.0,1,1,5.42,1,1.0,0,1.0,0,1.0,0,1.0
46,48,'L1',0.00143333,0.01075,0.00259,128.0,134.4,140.8,0.0,0.0,0.0,0.0,1,1,2.57,1,1.0,0,1.0,0,1.0,0,1.0
46,52,'L1',0.00249,0.02161,0.00776,284.0,298.2,312.4,0.0,0.0,0.0,0.0,1,1,6.26,1,1.0,0,1.0,0,1.0,0,1.0
46,117,'L1',0.00243733,0.01828,0.00486,175.0,183.7,192.5,0.0,0.0,0.0,0.0,1,1,4.61,1,1.0,0,1.0,0,1.0,0,1.0
46,118,'L1',0.002204,0.01653,0.00423,175.0,183.7,192.5,0.0,0.0,0.0,0.0,1,1,4.1,1,1.0,0,1.0,0,1.0,0,1.0
47,127,'L1',0.00312,0.04326,0.4339,868.0,911.4,954.8,0.0,0.0,0.0,0.0,1,1,66.72,1,1.0,0,1.0,0,1.0,0,1.0
51,52,'L1',0.00128,0.01193,0.00369,284.0,298.2,312.4,0.0,0.0,0.0,0.0,1,1,3.22,1,1.0,0,1.0,0,1.0,0,1.0
53,136,'L1',0.00299333,0.02245,0.00556,175.0,183.7,192.5,0.0,0.0,0.0,0.0,1,1,5.46,1,1.0,0,1.0,0,1.0,0,1.0
54,407,'L1',0.01999,0.14099,0.24207,366.0,384.3,402.6,0.0,0.0,0.0,0.0,1,1,89.89,1,1.0,0,1.0,0,1.0,0,1.0
56,59,'L1',0.015948,0.11961,0.03081,128.0,134.4,140.8,0.0,0.0,0.0,0.0,1,1,29.49,1,1.0,0,1.0,0,1.0,0,1.0
57,58,'L1',0.00330533,0.02479,0.00517,128.0,134.4,140.8,0.0,0.0,0.0,0.0,1,1,5.51,1,1.0,0,1.0,0,1.0,0,1.0
58,101,'L1',0.00871467,0.06536,0.01364,128.0,134.4,140.8,0.0,0.0,0.0,0.0,1,1,14.51,1,1.0,0,1.0,0,1.0,0,1.0
61,74,'L1',0.00490267,0.03677,0.00855,128.0,134.4,140.8,0.0,0.0,0.0,0.0,1,1,8.63,1,1.0,0,1.0,0,1.0,0,1.0
62,74,'L1',0.00370267,0.02777,0.00612,118.0,123.9,129.8,0.0,0.0,0.0,0.0,1,1,6.35,1,1.0,0,1.0,0,1.0,0,1.0
62,131,'L1',0.00693067,0.05198,0.01178,118.0,123.9,129.8,0.0,0.0,0.0,0.0,1,1,12.07,1,1.0,0,1.0,0,1.0,0,1.0
63,64,'L1',0.00298667,0.0224,0.00524,118.0,123.9,129.8,0.0,0.0,0.0,0.0,1,1,5.27,1,1.0,0,1.0,0,1.0,0,1.0
63,121,'L1',0.00455467,0.03416,0.00885,122.0,122.0,122.0,0.0,0.0,0.0,0.0,1,1,8.47,1,1.0,0,1.0,0,1.0,0,1.0
64,65,'L1',0.0027,0.02025,0.00492,118.0,123.9,129.8,0.0,0.0,0.0,0.0,1,1,4.87,1,1.0,0,1.0,0,1.0,0,1.0
65,66,'L1',0.00160133,0.01201,0.00265,118.0,123.9,129.8,0.0,0.0,0.0,0.0,1,1,2.75,1,1.0,0,1.0,0,1.0,0,1.0
67,68,'L1',0.000949333,0.00712,0.00161,118.0,123.9,129.8,0.0,0.0,0.0,0.0,1,1,1.65,1,1.0,0,1.0,0,1.0,0,1.0
67,125,'L1',0.002756,0.02067,0.00484,118.0,123.9,129.8,0.0,0.0,0.0,0.0,1,1,4.87,1,1.0,0,1.0,0,1.0,0,1.0
68,69,'L1',0.001312,0.00984,0.00205,128.0,134.4,140.8,0.0,0.0,0.0,0.0,1,1,2.19,1,1.0,0,1.0,0,1.0,0,1.0
70,72,'L1',0.00204533,0.01534,0.00395,128.0,134.4,140.8,0.0,0.0,0.0,0.0,1,1,3.77,1,1.0,0,1.0,0,1.0,0,1.0
70,130,'L1',0.003984,0.02988,0.00716,142.0,149.1,156.2,0.0,0.0,0.0,0.0,1,1,7.09,1,1.0,0,1.0,0,1.0,0,1.0
71,73,'L1',0.00252,0.0189,0.00476,159.0,166.9,174.9,0.0,0.0,0.0,0.0,1,1,4.62,1,1.0,0,1.0,0,1.0,0,1.0
71,75,'L1',0.00332,0.02612,0.00764,250.0,262.5,275.0,0.0,0.0,0.0,0.0,1,1,6.87,1,1.0,0,1.0,0,1.0,0,1.0
71,128,'L1',0.0180347,0.13526,0.03411,159.0,166.9,174.9,0.0,0.0,0.0,0.0,1,1,33.04,1,1.0,0,1.0,0,1.0,0,1.0
72,73,'L1',0.00177467,0.01331,0.00342,128.0,134.4,140.8,0.0,0.0,0.0,0.0,1,1,3.27,1,1.0,0,1.0,0,1.0,0,1.0
75,76,'L1',0.003464,0.02598,0.00655,159.0,166.9,174.9,0.0,0.0,0.0,0.0,1,1,6.35,1,1.0,0,1.0,0,1.0,0,1.0
75,79,'L1',0.00665867,0.04994,0.01258,159.0,166.9,174.9,0.0,0.0,0.0,0.0,1,1,12.19,1,1.0,0,1.0,0,1.0,0,1.0
76,77,'L1',0.00333067,0.02498,0.00699,159.0,166.9,174.9,0.0,0.0,0.0,0.0,1,1,6.44,1,1.0,0,1.0,0,1.0,0,1.0
77,78,'L1',0.003004,0.02253,0.00568,159.0,166.9,174.9,0.0,0.0,0.0,0.0,1,1,5.51,1,1.0,0,1.0,0,1.0,0,1.0
78,117,'L1',0.00509867,0.03824,0.00861,159.0,166.9,174.9,0.0,0.0,0.0,0.0,1,1,8.84,1,1.0,0,1.0,0,1.0,0,1.0
79,80,'L1',0.00250667,0.0188,0.00474,159.0,166.9,174.9,0.0,0.0,0.0,0.0,1,1,4.6,1,1.0,0,1.0,0,1.0,0,1.0
80,81,'L1',0.002336,0.01752,0.00427,159.0,166.9,174.9,0.0,0.0,0.0,0.0,1,1,4.21,1,1.0,0,1.0,0,1.0,0,1.0
81,82,'L1',0.00204133,0.01531,0.004,159.0,166.9,174.9,0.0,0.0,0.0,0.0,1,1,3.8,1,1.0,0,1.0,0,1.0,0,1.0
82,118,'L1',0.00518933,0.03892,0.01018,159.0,166.9,174.9,0.0,0.0,0.0,0.0,1,1,9.7,1,1.0,0,1.0,0,1.0,0,1.0
83,84,'L1',0.0106987,0.08024,0.01879,118.0,123.9,129.8,0.0,0.0,0.0,0.0,1,1,18.93,1,1.0,0,1.0,0,1.0,0,1.0
83,777,'L1',0.015096,0.11322,0.02549,159.0,166.9,174.9,0.0,0.0,0.0,0.0,1,1,26.22,1,1.0,0,1.0,0,1.0,0,1.0
85,84,'L1',0.00933333,0.07,0.016,142.0,149.1,156.2,0.0,0.0,0.0,0.0,1,1,10.79,1,1.0,0,1.0,0,1.0,0,1.0
85,91,'L1',0.0103307,0.07748,0.02062,175.0,183.7,192.5,0.0,0.0,0.0,0.0,1,1,19.51,1,1.0,0,1.0,0,1.0,0,1.0
87,88,'L1',0.00474267,0.03557,0.00763,142.0,149.1,156.2,0.0,0.0,0.0,0.0,1,1,8.0,1,1.0,0,1.0,0,1.0,0,1.0
88,89,'L1',0.00462133,0.03466,0.00907,159.0,166.9,174.9,0.0,0.0,0.0,0.0,1,1,8.63,1,1.0,0,1.0,0,1.0,0,1.0
89,90,'L1',0.00314133,0.02356,0.00593,159.0,166.9,174.9,0.0,0.0,0.0,0.0,1,1,5.75,1,1.0,0,1.0,0,1.0,0,1.0
90,91,'L1',0.00322533,0.02419,0.00633,159.0,166.9,174.9,0.0,0.0,0.0,0.0,1,1,6.03,1,1.0,0,1.0,0,1.0,0,1.0
92,93,'L1',0.0009,0.00675,0.0017,277.0,277.0,277.0,0.0,0.0,0.0,0.0,1,1,1.65,1,1.0,0,1.0,0,1.0,0,1.0
92,94,'L1',0.000465333,0.00349,0.00088,177.0,211.0,211.0,0.0,0.0,0.0,0.0,1,1,0.85,1,1.0,0,1.0,0,1.0,0,1.0
93,111,'L1',0.001464,0.01098,0.00247,142.0,149.1,156.2,0.0,0.0,0.0,0.0,1,1,2.53,1,1.0,0,1.0,0,1.0,0,1.0
94,95,'L1',0.000412,0.00309,0.00078,177.0,211.0,211.0,0.0,0.0,0.0,0.0,1,1,0.76,1,1.0,0,1.0,0,1.0,0,1.0
95,97,'L1',0.000813333,0.0061,0.00154,177.0,211.0,211.0,0.0,0.0,0.0,0.0,1,1,1.49,1,1.0,0,1.0,0,1.0,0,1.0
97,98,'L1',0.003024,0.02268,0.00601,230.0,241.5,253.0,0.0,0.0,0.0,0.0,1,1,5.67,1,1.0,0,1.0,0,1.0,0,1.0
97,102,'L1',0.00250533,0.01879,0.00499,142.0,149.1,156.2,0.0,0.0,0.0,0.0,1,1,4.7,1,1.0,0,1.0,0,1.0,0,1.0
98,121,'L1',0.014508,0.10881,0.02849,159.0,166.9,174.9,0.0,0.0,0.0,0.0,1,1,27.14,1,1.0,0,1.0,0,1.0,0,1.0
99,100,'L1',0.00429467,0.03221,0.00844,219.0,229.9,240.9,0.0,0.0,0.0,0.0,1,1,8.0,1,1.0,0,1.0,0,1.0,0,1.0
102,103,'L1',0.00361867,0.02714,0.00594,128.0,134.4,140.8,0.0,0.0,0.0,0.0,1,1,6.19,1,1.0,0,1.0,0,1.0,0,1.0
103,104,'L1',0.00468533,0.03514,0.00865,128.0,134.4,140.8,0.0,0.0,0.0,0.0,1,1,8.47,1,1.0,0,1.0,0,1.0,0,1.0
104,132,'L1',0.00524667,0.03935,0.00892,118.0,123.9,129.8,0.0,0.0,0.0,0.0,1,1,9.14,1,1.0,0,1.0,0,1.0,0,1.0
105,112,'L1',0.00715867,0.05369,0.01257,118.0,123.9,129.8,0.0,0.0,0.0,0.0,1,1,12.68,1,1.0,0,1.0,0,1.0,0,1.0
105,114,'L1',0.00580667,0.04355,0.01019,118.0,123.9,129.8,0.0,0.0,0.0,0.0,1,1,10.26,1,1.0,0,1.0,0,1.0,0,1.0
105,119,'L1',0.00431867,0.03239,0.0073,128.0,134.4,140.8,0.0,0.0,0.0,0.0,1,1,7.48,1,1.0,0,1.0,0,1.0,0,1.0
106,112,'L1',0.003656,0.02742,0.00604,118.0,123.9,129.8,0.0,0.0,0.0,0.0,1,1,6.29,1,1.0,0,1.0,0,1.0,0,1.0
108,113,'L1',0.0173707,0.13028,0.02955,118.0,123.9,129.8,0.0,0.0,0.0,0.0,1,1,30.31,1,1.0,0,1.0,0,1.0,0,1.0
108,3288,'L1',0.0130453,0.09784,0.01223,144.0,144.0,144.0,0.0,0.0,0.0,0.0,1,1,17.42,1,1.0,0,1.0,0,1.0,0,1.0
113,3288,'L1',0.0269427,0.20207,0.02526,144.0,144.0,144.0,0.0,0.0,0.0,0.0,1,1,36.04,1,1.0,0,1.0,0,1.0,0,1.0
115,116,'L1',0.00559467,0.04196,0.01018,118.0,123.9,129.8,0.0,0.0,0.0,0.0,1,1,10.06,1,1.0,0,1.0,0,1.0,0,1.0
119,120,'L1',0.00502267,0.03767,0.00914,118.0,123.9,129.8,0.0,0.0,0.0,0.0,1,1,9.04,1,1.0,0,1.0,0,1.0,0,1.0
120,123,'L1',0.00515333,0.03865,0.00905,118.0,123.9,129.8,0.0,0.0,0.0,0.0,1,1,9.12,1,1.0,0,1.0,0,1.0,0,1.0
122,123,'L1',0.00559733,0.04198,0.00525,144.0,144.0,144.0,0.0,0.0,0.0,0.0,1,1,7.53,1,1.0,0,1.0,0,1.0,0,1.0
122,126,'L1',0.00404267,0.03032,0.00736,118.0,123.9,129.8,0.0,0.0,0.0,0.0,1,1,7.27,1,1.0,0,1.0,0,1.0,0,1.0
123,124,'L1',0.001972,0.01479,0.00451,118.0,123.9,129.8,0.0,0.0,0.0,0.0,1,1,3.97,1,1.0,0,1.0,0,1.0,0,1.0
126,124,'L1',0.00540933,0.04057,0.00507,144.0,144.0,144.0,0.0,0.0,0.0,0.0,1,1,7.28,1,1.0,0,1.0,0,1.0,0,1.0
128,129,'L1',0.00532933,0.03997,0.01068,159.0,166.9,174.9,0.0,0.0,0.0,0.0,1,1,10.05,1,1.0,0,1.0,0,1.0,0,1.0
129,130,'L1',0.00439067,0.03293,0.00742,142.0,149.1,156.2,0.0,0.0,0.0,0.0,1,1,7.58,1,1.0,0,1.0,0,1.0,0,1.0
131,132,'L1',0.00856933,0.06427,0.01505,118.0,123.9,129.8,0.0,0.0,0.0,0.0,1,1,15.14,1,1.0,0,1.0,0,1.0,0,1.0
134,3202,'L1',0.0155667,0.11675,0.01459,144.0,144.0,144.0,0.0,0.0,0.0,0.0,1,1,20.84,1,1.0,0,1.0,0,1.0,0,1.0
136,137,'L1',0.001208,0.00906,0.00263,185.0,194.2,203.5,0.0,0.0,0.0,0.0,1,1,2.37,1,1.0,0,1.0,0,1.0,0,1.0
137,142,'L1',0.00159467,0.01196,0.00282,193.0,202.6,212.3,0.0,0.0,0.0,0.0,1,1,2.83,1,1.0,0,1.0,0,1.0,0,1.0
137,143,'L1',0.000776,0.00582,0.00147,159.0,166.9,174.9,0.0,0.0,0.0,0.0,1,1,1.42,1,1.0,0,1.0,0,1.0,0,1.0
...